Mass spectrum: Ginsenoside Re; LC-ESI-ITTOF; MS; [M+Na]+
Name: Ginsenoside Re
Name: beta-D-Glucopyranoside, (3beta,6alpha,12beta)-20-(beta-D-glucopyranosyloxy)-3,12-dihydroxydammar-24-en-6-yl 2-O-(6-deoxy-alpha-L-mannopyranosyl)-
Name: Dammarane, beta-D-glucopyranoside deriv.
Name: Chikusetsusaponin IVc
Name: Ginsenoside B2
Name: Panaxoside Re
Name: Sanchinoside Re
Name: NSC 308877
Name: EINECS 257-814-6
Name: AIDS-058058
Name: Ambap2206
Name: LS-71254
Name: 2-O-(6-Deoxy-alpha-L-mannopyranosyl)-(3beta,6alpha,12beta)-20-(beta-D-glucopyranosyloxy)-3,12-dihydroxydammar-24-en-6-yl-beta-D-glucopyranoside
Name: Dammar-24-ene-3,6,12,20-tetrol,6-O-[alpha-L-Rhamnopyranosyl-(1->2)-beta-D-glucopyranoside], 20-O-beta-D-glucopyranoside
Class: Natural Product; Saponin
Formula: C48H82O18
Exact mass: 946.55012
SMILES: C[C@H]1[C@@H]([C@H]([C@H]([C@@H](O1)O[C@@H]2[C@H]([C@@H]([C@H](O[C@H]2O[C@H]3C[C@@]4([C@H](C[C@H]([C@H]5[C@]4(CC[C@@H]5[C@](C)(CCC=C(C)C)O[C@H]6[C@@H]([C@H]([C@@H]([C@H](O6)CO)O)O)O)C)O)[C@@]7([C@@H]3C([C@H](CC7)O)(C)C)C)C)CO)O)O)O)O)O
InChI: InChI=1S/C48H82O18/c1-21(2)11-10-14-48(9,66-42-38(60)35(57)32(54)26(19-49)63-42)23-12-16-46(7)30(23)24(51)17-28-45(6)15-13-29(52)44(4,5)40(45)25(18-47(28,46)8)62-43-39(36(58)33(55)27(20-50)64-43)65-41-37(59)34(56)31(53)22(3)61-41/h11,22-43,49-60H,10,12-20H2,1-9H3/t22-,23-,24+,25-,26+,27+,28+,29-,30-,31-,32+,33+,34+,35-,36-,37+,38+,39+,40-,41-,42-,43+,45+,46+,47+,48-/m0/s1
Instrument: Shimadzu LC20A-IT-TOFMS
Instrument type: LC-ESI-ITTOF
Ms type: MS
Ion mode: POSITIVE
Ionization: ESI
Column name: Waters Atlantis T3 (2.1 x 150 mm, 5 um)
Retention time: 793.301 sec
Ion type: [M+Na]+
m/z	relative intensity
405.3524	308
423.3584	999
424.3600	279
425.3584	101
441.3717	382
442.3688	101
459.3822	90
569.4138	57
587.4377	57
588.4278	90
784.5185	148
969.5395	492
970.5454	327
