Mass spectrum: (Z)-(1,1,1,2,2,3,3,6,6,7,7,8,8,8-tetradecafluorooct-4-en-4,5-diyl)dibenzene; GC-EI-TOF; MS; POSITIVE; 70 V
Name: (Z)-(1,1,1,2,2,3,3,6,6,7,7,8,8,8-tetradecafluorooct-4-en-4,5-diyl)dibenzene
Class: Non-natural compound
Formula: C20H10F14
Exact mass: 516.055895
SMILES: FC(F)(C(=C(\c1ccccc1)C(F)(F)C(F)(F)C(F)(F)F)\c1ccccc1)C(F)(F)C(F)(F)F
InChI: InChI=1S/C20H10F14/c21-15(22,17(25,26)19(29,30)31)13(11-7-3-1-4-8-11)14(12-9-5-2-6-10-12)16(23,24)18(27,28)20(32,33)34/h1-10H/b14-13-
Instrument: JMS-T100GCV (JEOL, Akishima, Japan) coupled to Agilent 7890A (Santa Clara, CA, USA) gas chromatograph.
Instrument type: GC-EI-TOF
Ms type: MS
Ion mode: POSITIVE
Ionization: EI
Column name: DB-5MS 122-5532 USA360633H (Agilent, Wilmington, USA) with the length 30.0 m, I.D. 0.25 mm, and thickness 0.25 micrometer.
Retention time: 8.63 min
m/z	relative intensity
27.023	3
28.005	4
30.998	5
39.023	12
50.015	12
51.023	52
52.029	5
57.013	3
62.015	4
63.023	18
65.038	3
68.994	103
74.015	8
75.022	15
75.526	2
76.031	47
76.533	5
77.038	86
78.045	18
81.016	4
83.029	2
86.015	3
87.023	7
87.522	2
88.03	18
88.533	3
89.038	48
89.54	6
90.522	2
91.026	2
91.054	2
91.53	10
93.02	3
93.527	3
94.029	8
94.534	5
95.033	2
96.036	4
97.026	2
98.021	4
99.015	7
99.993	9
100.525	11
101.028	8
102.046	6
102.522	2
103.024	8
103.53	21
104.034	14
104.537	23
105.039	4
106.022	8
107.029	7
109.036	3
109.528	2
110.034	6
111.021	2
112.017	3
112.525	9
113.031	9
113.533	22
114.037	17
114.538	2
115.053	5
116.024	15
116.527	2
118.022	4
118.525	3
119.029	100
119.532	25
120.036	8
121.52	2
123.019	3
124.019	3
125.023	8
126.046	17
127.035	125
128.028	27
128.527	8
129.032	47
129.535	12
130.035	2
131.029	5
132.036	6
133.044	7
134.025	3
134.528	11
135.03	3
137.03	4
138.031	9
138.531	2
139.047	13
140.053	2
143.026	3
143.524	7
144.029	13
144.53	3
145.028	4
149.031	3
150.045	18
151.039	78
152.062	55
153.067	10
153.526	2
154.03	3
154.077	10
156.032	2
157.044	6
158.035	4
159.025	2
161.025	2
162.031	4
163.051	7
164.048	4
165.069	5
168.035	3
168.523	3
169.027	14
170.051	5
174.044	3
175.044	9
176.062	72
177.069	52
177.206	3
178.077	980
178.689	4
179.081	144
179.689	2
180.084	11
180.695	1
181.044	13
182.036	20
183.06	20
184.065	3
186.03	3
187.049	7
188.047	9
189.07	22
190.074	4
193.031	4
194.05	4
195.046	2
196.068	10
197.072	2
198.029	2
199.036	9
200.026	35
201.05	38
202.055	5
204.028	1
205.044	11
206.049	12
207.061	109
208.067	41
209.076	276
210.08	43
211.083	3
212.042	5
213.034	6
214.058	7
217.037	3
218.05	6
219.032	17
220.067	14
221.072	3
223.036	3
224.038	4
225.051	37
226.056	11
227.067	311
227.766	1
228.074	620
228.786	2
229.078	92
229.889	1
230.08	7
231.025	7
232.046	5
233.056	2
236.043	7
237.046	11
238.059	161
239.066	88
239.285	1
240.071	18
241.075	2
243.041	6
244.045	2
245.056	4
246.065	47
247.068	7
248.025	5
248.527	2
249.047	3
250.026	12
251.044	6
254.033	2
255.038	2
256.05	45
257.057	77
258.065	277
259.07	57
260.073	6
261.032	2
263.048	5
264.055	2
267.042	3
268.047	2
269.046	46
270.059	9
274.04	4
275.048	5
276.055	5
277.063	29
278.071	217
279.075	36
280.077	3
287.049	31
288.056	60
289.062	18
290.068	3
296.063	3
300.022	3
301.033	1
306.046	2
307.056	24
308.062	50
309.066	9
313.045	5
319.019	11
320.031	2
326.054	2
327.062	104
328.068	54
329.072	8
330.07	2
337.046	7
338.053	13
339.058	3
346.059	25
347.067	575
348.071	103
348.624	2
349.074	8
349.29	1
350.05	1
357.053	12
358.06	17
359.065	5
367.037	2
369.036	3
377.058	43
378.066	116
379.07	22
380.072	2
382.044	8
383.048	2
388.052	14
389.055	3
395.048	2
396.055	3
397.065	352
398.068	67
398.711	1
398.798	1
399.071	6
407.05	2
408.057	6
419.014	3
427.054	2
438.01	1
457.046	7
458.049	2
477.054	14
478.059	4
488.027	2
497.057	27
498.061	5
501.034	124
502.038	26
503.048	3
515.048	5
516.056	999
517.06	216
518.063	25
518.83	3
519.683	2
520.542	2
521.413	1
