Mass spectrum: (((2-ethylhexyl)thio)methyl)diphenylsilane; GC-EI-TOF; MS; POSITIVE; 70 V
Name: (((2-ethylhexyl)thio)methyl)diphenylsilane
Class: Non-natural compound
Formula: C21H30SSi
Exact mass: 342.183748
SMILES: CCC(CSC[SiH](c1ccccc1)c1ccccc1)CCCC
InChI: InChI=1S/C21H30SSi/c1-3-5-12-19(4-2)17-22-18-23(20-13-8-6-9-14-20)21-15-10-7-11-16-21/h6-11,13-16,19,23H,3-5,12,17-18H2,1-2H3
Instrument: JMS-T100GCV (JEOL, Akishima, Japan) coupled to Agilent 7890A (Santa Clara, CA, USA) gas chromatograph.
Instrument type: GC-EI-TOF
Ms type: MS
Ion mode: POSITIVE
Ionization: EI
Column name: HP-5 19091J-413 USD364547H (Agilent, Wilmington, USA) with the length 30.0 m, I.D. 0.32 mm, and thickness 0.25 micrometer.
Retention time: 11.79 min
m/z	relative intensity
27.024	32
28.006	32
28.031	4
29.039	105
31.99	12
39.024	19
40.031	2
41.04	177
42.046	17
43.001	5
43.055	179
44.059	6
44.981	6
45.989	4
46.996	8
51.024	8
52.032	2
52.985	39
53.04	9
53.988	3
54.047	4
55.001	6
55.055	107
55.09	1
55.114	2
56.063	29
57.071	132
58.075	6
60.005	4
60.958	3
61.012	37
63.009	2
65.04	14
67.001	7
67.056	7
68.063	5
69.071	67
70.079	47
71.087	38
74.973	11
75.028	3
76.986	3
77.04	30
77.993	3
78.047	11
79.001	35
79.055	9
80.005	4
81.017	5
81.072	4
82.079	4
83.087	21
84.094	15
89.041	6
90.047	5
91.056	354
92.06	31
93.017	29
93.069	4
94.019	3
95.027	1
97.102	3
103.002	25
103.056	2
104.008	7
105.017	365
105.072	9
106.019	45
107.023	15
108.03	2
111.118	5
112.126	13
115.057	6
117.017	7
118.024	5
119.033	37
120.038	10
121.047	6
128.064	3
129.017	11
130.023	3
131.033	13
136.989	63
137.994	16
139.004	21
140.003	3
141.002	2
143.032	3
145.047	2
145.105	2
148.989	3
149.996	4
151.005	68
152.012	798
152.625	2
153.015	130
153.531	2
154.01	69
154.079	5
155.032	34
156.035	6
157.047	7
159.122	81
159.215	1
160.125	9
161.119	4
165.021	25
165.072	32
166.023	4
166.077	8
167.031	7
167.087	14
168.038	2
168.093	2
169.048	4
179.034	8
180.041	39
181.049	285
181.318	4
182.052	66
183.064	999
183.731	3
184.067	179
184.694	2
185.064	45
185.665	1
185.733	1
186.066	5
193.049	18
194.055	8
195.064	153
195.194	4
196.071	109
197.079	146
197.283	1
198.081	28
199.079	7
210.088	2
213.021	4
215.036	311
216.039	58
216.137	3
217.034	28
218.036	4
227.036	8
228.041	2
229.052	340
230.058	360
230.746	1
231.06	101
231.281	1
231.378	1
232.057	34
233.059	7
238.118	4
241.051	3
251.129	3
285.114	2
294.179	6
295.184	3
313.145	2
327.161	46
328.164	13
329.159	5
341.177	3
342.184	52
343.186	15
344.183	6
