Mass spectrum: Chloridazon; LC-ESI-QTOF; MS2; [M+H]+; CID; CE 50V
Name: Chloridazon
Class: Non-natural product
Formula: C10H8ClN3O
Exact mass: 221.03559
SMILES: C1=CC=C(C=C1)N2C(=O)C(=C(C=N2)N)Cl
InChI: InChI=1S/C10H8ClN3O/c11-9-8(12)6-13-14(10(9)15)7-4-2-1-3-5-7/h1-6H,12H2
Instrument: X500R QTOF (AB Sciex LLC, MA, USA) coupled to ExionLC AD (AB Sciex LLC, MA, USA).
Instrument type: LC-ESI-QTOF
Ms type: MS2
Ion mode: POSITIVE
Collision energy: 50 V
Fragmentation mode: CID
Ionization: ESI
Column name: TSKgel ODS-100S 5 um, 2.1 mm Ã— 250 mm, TOSOH
Retention time: 11.7 min
Precursor m/z: 222.042867
Precursor type: [M+H]+
m/z	relative intensity
39.0227	92
51.0227	230
53.0383	52
55.0288	73
65.0383	571
66.021	141
73.9789	64
77.0383	999
87.9946	268
92.0492	381
93.0571	194
94.0648	81
95.0489	93
100.9898	263
104.0493	194
105.0445	114
116.9975	74
128.9849	86
130.0649	93
146.0113	235
