Mass spectrum: Azelnidipine; LC-ESI-QQ; MS2; ESI; NEGATIVE; CID; CE 50 V; [M-H]-
Name: Azelnidipine
Class: Non-natural product
Formula: C33H34N4O6
Exact mass: 582.24782
SMILES: CC1=C(C(C(=C(N1)N)C(=O)OC2CN(C2)C(C3=CC=CC=C3)C4=CC=CC=C4)C5=CC(=CC=C5)[N+](=O)[O-])C(=O)OC(C)C
InChI: InChI=1S/C33H34N4O6/c1-20(2)42-32(38)27-21(3)35-31(34)29(28(27)24-15-10-16-25(17-24)37(40)41)33(39)43-26-18-36(19-26)30(22-11-6-4-7-12-22)23-13-8-5-9-14-23/h4-17,20,26,28,30,35H,18-19,34H2,1-3H3
Instrument: LCMS-8040 coupled to Nexera XR (Shimadzu, Kyoto, Japan).
Instrument type: LC-ESI-QQ
Ms type: MS2
Ion mode: NEGATIVE
Collision energy: 50 V
Fragmentation mode: CID
Ionization: ESI
Column name: InertSustain C18 ID 2.1 microm, 2.1 x 100 mm (GL Science, Tokyo, Japan).
Retention time: 11.165 min
Precursor m/z: 581.240543
Precursor type: [M-H]-
m/z	relative intensity
41.2	22
46.3	24
66.1	35
79.0	10
92.1	21
105.1	24
107.1	212
121.9	36
133.1	113
139.1	15
150.2	11
155.1	11
160.9	10
162.1	15
167.9	10
169.0	16
173.0	23
177.0	999
180.0	26
181.1	13
184.0	20
185.0	45
186.0	16
193.1	30
196.2	13
197.0	12
208.0	37
210.0	48
211.1	16
213.0	64
214.0	60
216.1	15
219.1	15
225.1	25
226.0	73
227.0	14
228.1	37
229.1	11
238.1	37
239.0	10
240.0	35
241.1	17
252.0	28
254.0	115
256.1	19
273.2	38
282.0	90
284.0	13
298.1	41
299.1	36
300.2	17
342.1	24
