Mass spectrum: Quazepam; LC-ESI-QQ; MS; ESI; NEGATIVE
Name: Quazepam
Class: Non-natural product
Formula: C17H11ClF4N2S
Exact mass: 386.02675
SMILES: C1C(=S)N(C2=C(C=C(C=C2)Cl)C(=N1)C3=CC=CC=C3F)CC(F)(F)F
InChI: InChI=1S/C17H11ClF4N2S/c18-10-5-6-14-12(7-10)16(11-3-1-2-4-13(11)19)23-8-15(25)24(14)9-17(20,21)22/h1-7H,8-9H2
Instrument: LCMS-8040 coupled to Nexera XR (Shimadzu, Kyoto, Japan).
Instrument type: LC-ESI-QQ
Ms type: MS
Ion mode: NEGATIVE
Ionization: ESI
Column name: InertSustain C18 ID 2.1 microm, 2.1 x 100 mm (GL Science, Tokyo, Japan).
Retention time: 10.211 min
m/z	relative intensity
101	10
113	10
141	13
165	19
179	11
185	10
221	10
244	161
246	50
265	61
275	11
293	13
297	26
301	10
309	11
313	39
314	18
325	11
345	15
367	12
375	15
377	13
385	999
386	209
387	352
388	78
389	17
449	33
450	10
451	15
459	18
