Mass spectrum: Clemastine; LC-ESI-QQ; MS; ESI; POSITIVE
Name: Clemastine
Class: Non-natural product
Formula: C21H26ClNO
Exact mass: 343.170288
SMILES: C[C@@](C1=CC=CC=C1)(C2=CC=C(C=C2)Cl)OCC[C@H]3CCCN3C
InChI: InChI=1S/C21H26ClNO/c1-21(17-7-4-3-5-8-17,18-10-12-19(22)13-11-18)24-16-14-20-9-6-15-23(20)2/h3-5,7-8,10-13,20H,6,9,14-16H2,1-2H3/t20-,21-/m1/s1
Instrument: LCMS-8040 coupled to Nexera XR (Shimadzu, Kyoto, Japan).
Instrument type: LC-ESI-QQ
Ms type: MS
Ion mode: POSITIVE
Ionization: ESI
Column name: InertSustain C18 ID 2.1 microm, 2.1 x 100 mm (GL Science, Tokyo, Japan).
Retention time: 9.361 min
m/z	relative intensity
130.2	47
165.2	11
215.1	56
217.1	31
223.1	22
344.3	999
345.3	261
346.3	247
347.3	72
