Mass spectrum: Amantadine; LC-ESI-QQ; MS2; ESI; POSITIVE; CID; CE 50 V; [M+H]+
Name: Amantadine
Class: Non-natural product
Formula: C10H17N
Exact mass: 151.136095
SMILES: C1C2CC3CC1CC(C2)(C3)N
InChI: InChI=1S/C10H17N/c11-10-4-7-1-8(5-10)3-9(2-7)6-10/h7-9H,1-6,11H2
Instrument: LCMS-8040 coupled to Nexera XR (Shimadzu, Kyoto, Japan).
Instrument type: LC-ESI-QQ
Ms type: MS2
Ion mode: POSITIVE
Collision energy: 50 V
Fragmentation mode: CID
Ionization: ESI
Column name: InertSustain C18 ID 2.1 microm, 2.1 x 100 mm (GL Science, Tokyo, Japan).
Retention time: 6.176 min
Precursor m/z: 152.143372
Precursor type: [M+H]+
m/z	relative intensity
27.3	20
29.3	72
39.3	109
41.2	269
51.2	187
52.2	11
53.2	96
55.1	88
65.2	129
66.3	11
67.3	153
77.2	999
79.2	424
81.3	119
91.2	272
93.2	160
105.2	27
107.2	50
135.1	73
150.9	12
152.4	12
