Mass spectrum: Acibenzolar-S-methyl; LC-ESI-QTOF; MS2; [M+H]+; CID; CE 30 V
Name: Acibenzolar-S-methyl
Class: Non-natural product
Formula: C8H6N2OS2
Exact mass: 209.992155
SMILES: CSC(=O)C1=C2C(=CC=C1)N=NS2
InChI: InChI=1S/C8H6N2OS2/c1-12-8(11)5-3-2-4-6-7(5)13-10-9-6/h2-4H,1H3
Instrument: X500R QTOF (AB Sciex LLC, MA, USA) coupled to ExionLC AD (AB Sciex LLC, MA, USA).
Instrument type: LC-ESI-QTOF
Ms type: MS2
Ion mode: POSITIVE
Collision energy: 30 V
Fragmentation mode: CID
Ionization: ESI
Column name: TSKgel ODS-100S 5 um, 2.1 mm Ã— 250 mm, TOSOH
Retention time: 15.3 min
Precursor m/z: 210.999432
Precursor type: [M+H]+
m/z	relative intensity
44.979	43
91.054	327
96.0026	55
106.9948	65
108.0025	145
109.0104	169
111.026	58
121.0104	224
122.0181	136
134.9895	235
136.0083	999
139.9746	503
167.9697	261
210.9992	927
