Mass spectrum: Olmesartan medoxomil; LC-ESI-QQ; MS2; ESI; NEGATIVE; CID; CE 40 V; [M-H]-
Name: Olmesartan medoxomil
Class: Non-natural product
Formula: C29H30N6O6
Exact mass: 558.22266
SMILES: CCCC1=NC(=C(N1CC2=CC=C(C=C2)C3=CC=CC=C3C4=NNN=N4)C(=O)OCC5=C(OC(=O)O5)C)C(C)(C)O
InChI: InChI=1S/C29H30N6O6/c1-5-8-23-30-25(29(3,4)38)24(27(36)39-16-22-17(2)40-28(37)41-22)35(23)15-18-11-13-19(14-12-18)20-9-6-7-10-21(20)26-31-33-34-32-26/h6-7,9-14,38H,5,8,15-16H2,1-4H3,(H,31,32,33,34)
Instrument: LCMS-8040 coupled to Nexera XR (Shimadzu, Kyoto, Japan).
Instrument type: LC-ESI-QQ
Ms type: MS2
Ion mode: NEGATIVE
Collision energy: 40 V
Fragmentation mode: CID
Ionization: ESI
Column name: InertSustain C18 ID 2.1 microm, 2.1 x 100 mm (GL Science, Tokyo, Japan).
Retention time: 8.511 min
Precursor m/z: 557.215383
Precursor type: [M-H]-
m/z	relative intensity
109.2	225
120.2	17
149.2	999
151.2	54
165.0	14
167.1	602
177.2	19
178.1	24
179.1	15
192.2	10
193.1	13
206.1	11
211.1	11
242.1	11
285.1	16
315.3	17
343.3	29
