Mass spectrum: Metsulfuron-methyl; LC-ESI-QTOF; MS2; [M-H]-; CID; CE 10V
Name: Metsulfuron-methyl
Class: Non-natural product
Formula: C14H15N5O6S
Exact mass: 381.074304
SMILES: CC1=NC(=NC(=N1)OC)NC(=O)NS(=O)(=O)C2=CC=CC=C2C(=O)OC
InChI: InChI=1S/C14H15N5O6S/c1-8-15-12(18-14(16-8)25-3)17-13(21)19-26(22,23)10-7-5-4-6-9(10)11(20)24-2/h4-7H,1-3H3,(H2,15,16,17,18,19,21)
Instrument: X500R QTOF (AB Sciex LLC, MA, USA) coupled to ExionLC AD (AB Sciex LLC, MA, USA).
Instrument type: LC-ESI-QTOF
Ms type: MS2
Ion mode: NEGATIVE
Collision energy: 10 V
Fragmentation mode: CID
Ionization: ESI
Column name: AQ-C18HP 3 microm, 2.1 mm Ã— 150 mm (GL Science, Tokyo, Japan).
Retention time: 28.9 min
Precursor m/z: 380.067027
Precursor type: [M-H]-
m/z	relative intensity
139.0624	121
181.9916	12
214.0179	26
380.0668	999
