Mass spectrum: 4-(6,6,6-Trifluoro-3-hexyenyl)anisole; GC-EI-TOF; MS; POSITIVE; 70 V
Name: 4-(6,6,6-Trifluoro-3-hexyenyl)anisole
Class: Non-natural compound
Formula: C13H15F3O
Exact mass: 244.107499
SMILES: COc1ccc(CC\C=C\CC(F)(F)F)cc1
InChI: InChI=1S/C13H15F3O/c1-17-12-8-6-11(7-9-12)5-3-2-4-10-13(14,15)16/h2,4,6-9H,3,5,10H2,1H3/b4-2+
Instrument: JMS-T100GCV (JEOL, Akishima, Japan) coupled to Agilent 7890A (Santa Clara, CA, USA) gas chromatograph.
Instrument type: GC-EI-TOF
Ms type: MS
Ion mode: POSITIVE
Ionization: EI
Column name: ZB-1MS 7HM-G011-11 sn:313446 (Agilent, Wilmington, USA) with the length 30.0 m, I.D. 0.32 mm, and thickness 0.25 micrometer.
Retention time: 8.17 min
m/z	relative intensity
27.023	7
28.006	18
31.99	12
39.023	20
41.039	9
50.016	5
51.023	21
52.031	16
53.039	10
54.047	3
55.019	3
59.029	26
63.023	12
64.031	6
65.039	21
68.996	4
76.031	3
77.039	56
78.047	66
79.052	6
89.039	18
90.047	13
91.055	40
92.026	2
92.059	3
95.015	1
102.046	3
103.052	6
104.06	2
105.034	3
106.041	8
107.049	5
109.046	4
115.054	11
116.061	3
117.07	3
119.05	3
121.065	999
121.608	3
122.069	79
122.36	1
122.418	1
123.07	5
127.054	3
128.062	6
129.07	4
131.05	3
134.073	3
144.056	2
145.065	2
146.07	2
159.08	3
244.108	36
245.11	5
