Mass spectrum: Rilmazafone; LC-ESI-QQ; MS2; ESI; NEGATIVE; CID; CE 20 V; [M-H]-
Name: Rilmazafone
Class: Non-natural product
Formula: C21H20Cl2N6O3
Exact mass: 474.097371
SMILES: CN(C)C(=O)C1=NN(C(=N1)CNC(=O)CN)C2=C(C=C(C=C2)Cl)C(=O)C3=CC=CC=C3Cl
InChI: InChI=1S/C21H20Cl2N6O3/c1-28(2)21(32)20-26-17(11-25-18(30)10-24)29(27-20)16-8-7-12(22)9-14(16)19(31)13-5-3-4-6-15(13)23/h3-9H,10-11,24H2,1-2H3,(H,25,30)
Instrument: LCMS-8040 coupled to Nexera XR (Shimadzu, Kyoto, Japan).
Instrument type: LC-ESI-QQ
Ms type: MS2
Ion mode: NEGATIVE
Ionization: ESI
Collision energy: 20 V
Fragmentation mode: CID
Column name: InertSustain C18 ID 2.1 microm, 2.1 x 100 mm (GL Science, Tokyo, Japan).
Retention time: 8.244 min
Precursor m/z: 473.090094
Precursor type: [M-H]-
m/z	relative intensity
35.4	43
163.7	11
165.0	11
179.9	11
208.1	15
209.0	54
228.1	640
241.1	28
260.1	29
267.1	16
303.0	999
321.1	181
361.2	17
380.3	22
412.2	19
416.2	112
420.0	11
429.2	11
455.1	88
473.2	84
474.0	11
