Mass spectrum: Fludiazepam; LC-ESI-QQ; MS2; ESI; POSITIVE; CID; CE 40 V; [M+H]+
Name: Fludiazepam
Class: Non-natural product
Formula: C16H12ClFN2O
Exact mass: 302.062211
SMILES: CN1C(=O)CN=C(C2=C1C=CC(=C2)Cl)C3=CC=CC=C3F
InChI: InChI=1S/C16H12ClFN2O/c1-20-14-7-6-10(17)8-12(14)16(19-9-15(20)21)11-4-2-3-5-13(11)18/h2-8H,9H2,1H3
Instrument: LCMS-8040 coupled to Nexera XR (Shimadzu, Kyoto, Japan).
Instrument type: LC-ESI-QQ
Ms type: MS2
Ion mode: POSITIVE
Collision energy: 40 V
Fragmentation mode: CID
Ionization: ESI
Column name: InertSustain C18 ID 2.1 microm, 2.1 x 100 mm (GL Science, Tokyo, Japan).
Retention time: 9.408 min
Precursor m/z: 303.069488
Precursor type: [M+H]+
m/z	relative intensity
30.3	10
42.4	11
58.3	120
77.2	27
89.2	28
90.2	34
91.2	115
95.2	34
99.2	20
102.2	48
105.2	12
109.2	176
111.2	31
113.2	42
114.1	14
116.2	12
117.2	208
118.2	125
119.2	109
122.2	38
123.2	63
124.2	14
125.1	221
126.1	28
131.2	23
134.2	51
138.1	28
139.2	46
140.2	19
143.2	40
144.3	12
145.2	16
147.2	56
150.0	42
152.1	53
154.1	569
163.1	36
164.1	35
165.1	46
167.2	35
172.1	21
177.2	46
179.1	30
180.2	49
182.0	10
183.1	85
184.3	10
190.1	30
191.1	12
196.1	16
198.2	63
199.1	11
205.2	99
208.2	11
209.1	17
211.1	999
212.2	53
214.2	40
217.1	10
219.2	54
220.2	19
221.3	14
222.3	19
224.1	70
225.2	99
228.2	12
234.1	30
238.1	12
239.1	57
240.2	177
245.1	42
246.1	22
259.2	203
273.1	33
275.1	15
303.2	29
