Mass spectrum: Chlorpheniramine; LC-ESI-QQ; MS2; ESI; POSITIVE; CID; CE 30 V; [M+H]+
Name: Chlorpheniramine
Class: Non-natural product
Formula: C16H19ClN2
Exact mass: 274.123668
SMILES: CN(C)CCC(C1=CC=C(C=C1)Cl)C2=CC=CC=N2
InChI: InChI=1S/C16H19ClN2/c1-19(2)12-10-15(16-5-3-4-11-18-16)13-6-8-14(17)9-7-13/h3-9,11,15H,10,12H2,1-2H3
Instrument: LCMS-8040 coupled to Nexera XR (Shimadzu, Kyoto, Japan).
Instrument type: LC-ESI-QQ
Ms type: MS2
Ion mode: POSITIVE
Collision energy: 30 V
Fragmentation mode: CID
Ionization: ESI
Column name: InertSustain C18 ID 2.1 microm, 2.1 x 100 mm (GL Science, Tokyo, Japan).
Retention time: 7.639 min
Precursor m/z: 275.130945
Precursor type: [M+H]+
m/z	relative intensity
91.2	11
117.3	17
118.2	47
125.1	40
167.1	404
180.2	33
194.2	19
195.2	17
201.1	52
202.1	62
230.1	999
