Mass spectrum: Imazosulfuron; LC-ESI-QTOF; MS2; [M+H]+; CID; CE 60V
Name: Imazosulfuron
Class: Non-natural product
Formula: C14H13ClN6O5S
Exact mass: 412.035666
SMILES: COC1=CC(=NC(=N1)NC(=O)NS(=O)(=O)C2=C(N=C3N2C=CC=C3)Cl)OC
InChI: InChI=1S/C14H13ClN6O5S/c1-25-9-7-10(26-2)18-13(17-9)19-14(22)20-27(23,24)12-11(15)16-8-5-3-4-6-21(8)12/h3-7H,1-2H3,(H2,17,18,19,20,22)
Instrument: X500R QTOF (AB Sciex LLC, MA, USA) coupled to ExionLC AD (AB Sciex LLC, MA, USA).
Instrument type: LC-ESI-QTOF
Ms type: MS2
Ion mode: POSITIVE
Collision energy: 60 V
Fragmentation mode: CID
Ionization: ESI
Column name: AQ-C18HP 3 microm, 2.1 mm Ã— 150 mm (GL Science, Tokyo, Japan).
Retention time: 31.9 min
Precursor m/z: 413.042943
Precursor type: [M+H]+
m/z	relative intensity
57.0444	49
69.0086	46
78.0336	331
82.0292	37
83.0236	100
84.0314	32
96.0443	42
98.9995	193
100.0391	387
105.044	55
111.0422	73
118.0522	83
124.0502	127
139.0056	134
139.0376	133
139.0499	123
140.0448	57
141.0537	61
143.0484	41
151.0057	67
152.0135	999
153.0214	414
156.0768	329
168.0077	63
178.0167	404
182.0552	65
231.9951	113
257.9735	334
