Mass spectrum: Oxybuprocaine; LC-ESI-QQ; MS2; ESI; POSITIVE; CID; CE 40 V; [M+H]+
Name: Oxybuprocaine
Class: Non-natural product
Formula: C17H28N2O3
Exact mass: 308.209985
SMILES: CCCCOC1=C(C=CC(=C1)C(=O)OCCN(CC)CC)N
InChI: InChI=1S/C17H28N2O3/c1-4-7-11-21-16-13-14(8-9-15(16)18)17(20)22-12-10-19(5-2)6-3/h8-9,13H,4-7,10-12,18H2,1-3H3
Instrument: LCMS-8040 coupled to Nexera XR (Shimadzu, Kyoto, Japan).
Instrument type: LC-ESI-QQ
Ms type: MS2
Ion mode: POSITIVE
Collision energy: 40 V
Fragmentation mode: CID
Ionization: ESI
Column name: InertSustain C18 ID 2.1 microm, 2.1 x 100 mm (GL Science, Tokyo, Japan).
Retention time: 8.188 min
Precursor m/z: 309.217262
Precursor type: [M+H]+
m/z	relative intensity
29.3	14
44.3	202
53.2	23
72.3	251
80.3	232
91.3	14
100.3	331
107.2	23
108.2	395
136.2	999
179.2	34
180.2	20
192.2	90
236.3	27
