Mass spectrum: Quetiapine; LC-ESI-QQ; MS2; ESI; POSITIVE; CID; CE 40 V; [M+H]+
Name: Quetiapine
Class: Non-natural product
Formula: C21H25N3O2S
Exact mass: 383.166736
SMILES: C1CN(CCN1CCOCCO)C2=NC3=CC=CC=C3SC4=CC=CC=C42
InChI: InChI=1S/C21H25N3O2S/c25-14-16-26-15-13-23-9-11-24(12-10-23)21-17-5-1-3-7-19(17)27-20-8-4-2-6-18(20)22-21/h1-8,25H,9-16H2
Instrument: LCMS-8040 coupled to Nexera XR (Shimadzu, Kyoto, Japan).
Instrument type: LC-ESI-QQ
Ms type: MS2
Ion mode: POSITIVE
Collision energy: 40 V
Fragmentation mode: CID
Ionization: ESI
Column name: InertSustain C18 ID 2.1 microm, 2.1 x 100 mm (GL Science, Tokyo, Japan).
Retention time: 9.705 min
Precursor m/z: 384.174013
Precursor type: [M+H]+
m/z	relative intensity
45.4	35
70.3	63
88.3	12
89.2	15
96.3	28
158.2	41
177.2	17
178.2	40
183.2	47
204.2	11
210.1	412
219.2	32
221.2	999
236.1	12
247.2	267
253.2	511
279.2	100
