Mass spectrum: Flutoprazepam; LC-ESI-QQ; MS2; ESI; POSITIVE; CID; CE 10 V; [M+H]+
Name: Flutoprazepam
Class: Non-natural product
Formula: C19H16ClFN2O
Exact mass: 342.093511
SMILES: C1CC1CN2C(=O)CN=C(C3=C2C=CC(=C3)Cl)C4=CC=CC=C4F
InChI: InChI=1S/C19H16ClFN2O/c20-13-7-8-17-15(9-13)19(14-3-1-2-4-16(14)21)22-10-18(24)23(17)11-12-5-6-12/h1-4,7-9,12H,5-6,10-11H2
Instrument: LCMS-8040 coupled to Nexera XR (Shimadzu, Kyoto, Japan).
Instrument type: LC-ESI-QQ
Ms type: MS2
Ion mode: POSITIVE
Collision energy: 10 V
Fragmentation mode: CID
Ionization: ESI
Column name: InertSustain C18 ID 2.1 microm, 2.1 x 100 mm (GL Science, Tokyo, Japan).
Retention time: 10.152 min
Precursor m/z: 343.100788
Precursor type: [M+H]+
m/z	relative intensity
289.2	23
343.2	999
