Mass spectrum: Diphenyl(((3-phenylpropyl)thio)methyl)silane; GC-EI-TOF; MS; POSITIVE; 70 V
Name: Diphenyl(((3-phenylpropyl)thio)methyl)silane
Class: Non-natural compound
Formula: C22H24SSi
Exact mass: 348.136798
SMILES: c1cccc(c1)[SiH](CSCCCc1ccccc1)c1ccccc1
InChI: InChI=1S/C22H24SSi/c1-4-11-20(12-5-1)13-10-18-23-19-24(21-14-6-2-7-15-21)22-16-8-3-9-17-22/h1-9,11-12,14-17,24H,10,13,18-19H2
Instrument: JMS-T100GCV (JEOL, Akishima, Japan) coupled to Agilent 7890A (Santa Clara, CA, USA) gas chromatograph.
Instrument type: GC-EI-TOF
Ms type: MS
Ion mode: POSITIVE
Ionization: EI
Column name: HP-5 19091J-413 USD364547H (Agilent, Wilmington, USA) with the length 30.0 m, I.D. 0.32 mm, and thickness 0.25 micrometer.
Retention time: 12.71 min
m/z	relative intensity
27.024	5
28.006	22
31.99	9
39.024	21
41.04	41
43.001	4
44.98	10
45.988	9
46.996	8
50.016	3
51.024	18
52.032	4
52.985	44
53.04	3
53.988	4
55.001	6
61.012	77
62.015	3
63.024	8
65.04	61
65.993	3
66.044	4
67.001	7
74.973	7
76.986	4
77.04	41
77.993	3
78.047	19
79.001	38
79.056	14
80.004	4
81.017	6
89.04	12
90.048	8
91.056	567
91.241	1
91.477	1
91.528	2
92.06	47
93.017	22
93.067	3
94.019	3
102.048	3
103.002	25
103.056	13
104.007	7
104.064	24
105.017	350
105.072	29
106.019	41
106.075	3
107.024	14
108.033	2
109.013	2
115.056	27
116.063	6
117.018	7
117.072	152
117.206	5
118.025	5
118.079	522
118.559	1
119.033	25
119.083	54
120.039	7
120.087	3
121.048	5
123.029	9
128.064	3
129.017	11
130.023	3
131.033	12
131.088	4
132.094	3
136.989	34
137.995	9
138.999	5
143.033	3
145.048	4
149.997	3
151.005	51
152.012	255
153.016	47
154.01	23
154.079	3
155.033	35
156.035	5
157.048	7
158.055	2
165.02	6
165.072	27
166.078	7
167.032	5
167.087	12
168.037	2
169.048	3
179.035	18
180.041	41
180.17	1
181.049	295
181.318	4
182.052	60
183.064	999
183.734	3
184.067	180
184.692	2
185.064	45
185.707	1
186.066	5
192.043	3
193.049	13
194.055	6
195.064	146
195.195	4
196.071	143
196.27	1
197.079	113
198.08	22
199.079	5
207.035	2
213.021	3
215.036	103
216.039	19
217.034	9
222.087	2
227.037	8
228.04	2
229.052	138
230.058	106
231.058	28
232.057	10
233.061	2
255.067	12
256.069	3
257.082	14
258.085	3
259.089	3
269.082	3
270.089	3
271.093	2
272.101	4
300.133	14
301.14	15
302.142	4
306.086	2
333.114	16
334.116	5
335.112	2
347.13	3
348.137	120
349.139	36
350.137	14
351.138	3
