Mass spectrum: S-Dodecyl 4-phenylbenzothioate; GC-EI-TOF; MS; POSITIVE; 70 V
Name: S-Dodecyl 4-phenylbenzothioate
Class: Non-natural compound
Formula: C25H34OS
Exact mass: 382.233036
SMILES: O=C(SCCCCCCCCCCCC)c1ccc(cc1)c1ccccc1
InChI: InChI=1S/C25H34OS/c1-2-3-4-5-6-7-8-9-10-14-21-27-25(26)24-19-17-23(18-20-24)22-15-12-11-13-16-22/h11-13,15-20H,2-10,14,21H2,1H3
Instrument: JMS-T100GCV (JEOL, Akishima, Japan) coupled to Agilent 7890A (Santa Clara, CA, USA) gas chromatograph.
Instrument type: GC-EI-TOF
Ms type: MS
Ion mode: POSITIVE
Ionization: EI
Column name: HP-5MS 30x0.25 0.25microm 19091S-4 (Agilent, Wilmington, USA) with the length 30.0 m, I.D. 0.25 mm, and thickness 0.25 micrometer.
Retention time: 16.10 min
m/z	relative intensity
27.023	5
28.005	7
29.039	14
39.023	4
41.039	33
42.046	6
43.055	47
44.979	3
46.995	4
51.023	3
55.054	24
56.061	4
57.07	17
61.011	3
67.055	4
69.07	9
71.086	3
73.047	6
75.023	3
76.031	3
77.038	6
83.085	2
87.027	6
101.041	4
102.046	4
115.056	3
126.047	7
127.054	14
135.062	2
150.047	6
151.055	37
152.062	173
152.193	4
153.069	94
154.074	12
155.083	2
180.058	2
181.065	999
181.546	2
181.73	3
182.068	138
182.69	2
183.071	11
183.702	1
184.035	2
185.042	5
207.032	8
214.045	4
253.016	2
281.052	4
322.229	3
341.018	2
382.233	19
383.237	5
384.233	1
