Mass spectrum: Sulpiride; LC-ESI-QQ; MS2; ESI; POSITIVE; CID; CE 50 V; [M+H]+
Name: Sulpiride
Class: Non-natural product
Formula: C15H23N3O4S
Exact mass: 341.140916
SMILES: CCN1CCCC1CNC(=O)C2=C(C=CC(=C2)S(=O)(=O)N)OC
InChI: InChI=1S/C15H23N3O4S/c1-3-18-8-4-5-11(18)10-17-15(19)13-9-12(23(16,20)21)6-7-14(13)22-2/h6-7,9,11H,3-5,8,10H2,1-2H3,(H,17,19)(H2,16,20,21)
Instrument: LCMS-8040 coupled to Nexera XR (Shimadzu, Kyoto, Japan).
Instrument type: LC-ESI-QQ
Ms type: MS2
Ion mode: POSITIVE
Collision energy: 50 V
Fragmentation mode: CID
Ionization: ESI
Column name: InertSustain C18 ID 2.1 microm, 2.1 x 100 mm (GL Science, Tokyo, Japan).
Retention time: 3.846 min
Precursor m/z: 342.148193
Precursor type: [M+H]+
m/z	relative intensity
30.3	53
41.4	41
42.3	44
44.3	22
55.3	191
56.3	291
58.3	517
64.1	23
67.2	69
68.4	20
69.3	35
70.4	53
75.3	100
76.2	16
77.4	43
78.4	32
79.3	47
80.2	29
82.2	41
83.3	16
84.2	999
92.4	36
95.3	41
98.3	294
106.1	18
107.1	54
108.2	93
109.2	47
110.2	78
112.3	525
133.3	33
134.2	114
138.2	19
139.1	158
155.0	35
156.2	108
171.0	25
214.0	361
241.9	81
254.8	19
