Mass spectrum: ((Heptan-2-ylthio)methyl)diphenylsilane; GC-EI-TOF; MS; POSITIVE; 70 V
Name: ((Heptan-2-ylthio)methyl)diphenylsilane
Class: Non-natural compound
Formula: C20H28SSi
Exact mass: 328.168098
SMILES: CC(SC[SiH](c1ccccc1)c1ccccc1)CCCCC
InChI: InChI=1S/C20H28SSi/c1-3-4-7-12-18(2)21-17-22(19-13-8-5-9-14-19)20-15-10-6-11-16-20/h5-6,8-11,13-16,18,22H,3-4,7,12,17H2,1-2H3
Instrument: JMS-T100GCV (JEOL, Akishima, Japan) coupled to Agilent 7890A (Santa Clara, CA, USA) gas chromatograph.
Instrument type: GC-EI-TOF
Ms type: MS
Ion mode: POSITIVE
Ionization: EI
Column name: HP-5 19091J-413 USD364547H (Agilent, Wilmington, USA) with the length 30.0 m, I.D. 0.32 mm, and thickness 0.25 micrometer.
Retention time: 11.53 min
m/z	relative intensity
27.024	26
28.006	19
28.031	4
29.039	82
31.99	7
39.024	17
40.031	2
41.04	131
41.088	2
42.046	16
43.001	4
43.055	121
43.109	1
44.059	4
44.98	4
45.989	3
46.996	4
51.024	8
52.985	37
53.04	6
53.988	3
54.047	3
55.001	6
55.055	73
56.063	29
57.071	161
58.075	7
58.996	5
60.004	3
61.012	6
65.04	13
67.001	6
67.056	3
69.071	15
70.079	20
71.086	4
74.02	4
74.973	10
75.028	9
76.985	3
77.04	27
77.993	2
78.047	11
79.001	31
79.055	7
80.004	4
81.017	5
81.071	3
83.087	9
84.094	5
89.04	5
90.047	5
91.055	229
91.19	1
92.06	20
93.017	21
93.07	3
94.018	2
97.103	9
98.11	9
103.001	22
104.007	6
105.017	311
105.071	57
106.019	37
106.075	5
107.023	13
108.033	2
112.126	3
115.056	4
117.017	6
118.024	3
119.033	27
120.037	5
121.047	4
128.063	2
129.018	10
130.024	3
131.033	10
136.989	52
137.996	45
139.003	28
139.999	5
141.001	2
143.034	3
145.106	11
148.989	2
149.997	4
151.005	132
152.012	325
153.016	71
154.01	29
154.078	3
155.032	30
156.035	5
157.048	6
165.072	22
166.077	5
167.033	4
167.087	9
169.048	2
179.034	9
180.041	35
181.049	228
181.317	4
182.052	50
183.064	999
183.735	3
184.067	177
184.691	2
185.064	44
185.673	1
185.745	1
186.066	5
193.049	11
194.055	5
195.064	176
196.071	116
197.079	151
198.081	28
199.079	7
213.021	3
215.036	192
215.242	1
216.038	35
217.034	17
218.035	2
227.036	9
228.041	2
229.051	419
230.056	161
231.054	54
232.055	14
233.057	3
237.114	3
243.067	3
257.083	6
280.164	3
313.145	15
314.147	4
328.168	51
329.171	14
330.168	5
