Mass spectrum: Nitrazepam; LC-ESI-QQ; MS2; ESI; NEGATIVE; CID: CE 50 V; [M-H]-
Name: Nitrazepam
Class: Non-natural product
Formula: C15H11N3O3
Exact mass: 281.08003
SMILES: C1C(=O)NC2=C(C=C(C=C2)[N+](=O)[O-])C(=N1)C3=CC=CC=C3
InChI: InChI=1S/C15H11N3O3/c19-14-9-16-15(10-4-2-1-3-5-10)12-8-11(18(20)21)6-7-13(12)17-14/h1-8H,9H2,(H,17,19)
Instrument: LCMS-8040 coupled to Nexera XR (Shimadzu, Kyoto, Japan).
Instrument type: LC-ESI-QQ
Ms type: MS2
Ion mode: NEGATIVE
Collision energy: 50 V
Fragmentation mode: CID
Ionization: ESI
Column name: InertSustain C18 ID 2.1 microm, 2.1 x 100 mm (GL Science, Tokyo, Japan).
Retention time: 8.592 min
Precursor m/z: 280.07275
Precursor type: [M-H]-
m/z	relative intensity
41.2	31
42.1	78
46.2	391
50.2	10
64.0	15
90.1	20
101.1	137
115.1	90
117.1	12
117.9	15
124.8	20
127.1	12
140.7	42
164.1	42
166.1	999
177.3	13
194.0	270
195.0	31
203.1	27
204.4	16
205.9	80
207.3	21
218.7	14
221.9	143
251.7	45
