Mass spectrum: 3-(Furan-2-yldimethylsilyl)-N,N-dimethylaniline; GC-EI-TOF; MS; POSITIVE; 70 V
Name: 3-(Furan-2-yldimethylsilyl)-N,N-dimethylaniline
Class: Non-natural compound
Formula: C14H19NOSi
Exact mass: 245.123587
SMILES: C[Si](C)(c1ccco1)c1cccc(c1)N(C)C
InChI: InChI=1S/C14H19NOSi/c1-15(2)12-7-5-8-13(11-12)17(3,4)14-9-6-10-16-14/h5-11H,1-4H3
Instrument: JMS-T100GCV (JEOL, Akishima, Japan) coupled to Agilent 7890A (Santa Clara, CA, USA) gas chromatograph.
Instrument type: GC-EI-TOF
Ms type: MS
Ion mode: POSITIVE
Ionization: EI
Column name: HP-5 19091J-413 USD364547H (Agilent, Wilmington, USA) with the length 30.0 m, I.D. 0.32 mm, and thickness 0.25 micrometer.
Retention time: 9.48 min
m/z	relative intensity
27.024	5
28.006	11
28.985	5
29.003	5
31.99	7
38.016	3
39.024	24
41.039	3
42.035	33
43.001	65
43.041	2
44.001	4
44.05	12
44.98	30
45.016	11
46.996	3
50.016	4
51.024	25
52.031	5
52.985	25
53.04	7
53.986	3
55.001	13
55.055	4
55.997	4
57.017	3
58.024	5
58.996	2
59.032	39
60.033	3
61.011	9
63.024	10
64.029	3
65.04	21
65.993	6
66.039	3
67.001	16
67.048	1
68.005	3
68.051	3
69.017	30
70.016	4
71.032	9
72.028	5
73.526	10
74.024	2
74.534	10
75.027	16
76.032	7
76.986	4
77.04	32
77.993	2
78.047	14
79.001	9
79.053	7
80.005	2
80.534	6
81.017	8
81.541	8
82.02	2
83.033	17
84.03	4
85.012	19
85.526	3
86.012	2
86.534	30
87.034	7
87.54	5
88.036	1
88.55	16
89.042	9
89.539	14
90.043	7
91.001	3
91.056	38
92.008	3
92.059	5
93.017	16
93.063	2
93.542	14
94.017	3
94.539	2
94.996	12
95.032	18
96.036	3
97.012	5
97.048	6
98.019	5
99.027	143
99.109	2
99.542	2
100.029	14
100.549	12
101.036	6
101.539	18
102.043	15
102.542	2
103.001	23
103.054	7
104.006	6
104.052	18
105.017	24
105.06	12
106.02	5
106.066	3
106.532	3
107.033	10
107.539	4
108.038	3
108.547	12
109.012	63
110.014	7
111.027	9
113.041	3
114.047	3
114.547	67
114.615	1
115.052	67
115.55	9
116.057	7
117.017	11
117.062	8
118.018	4
118.067	27
119.032	29
119.074	10
120.031	9
120.082	60
121.047	7
121.088	13
121.555	3
122.054	3
122.563	13
123.027	2
123.062	3
125.043	51
126.046	9
127.055	12
128.063	19
129.018	5
129.069	8
130.022	5
130.068	7
131.032	17
131.075	5
132.03	17
132.082	4
133.046	21
133.09	8
134.046	11
134.098	29
135.03	6
135.104	9
136.045	2
139.056	3
140.055	3
141.018	2
141.071	10
142.024	4
142.07	7
143.033	19
143.075	6
144.033	6
144.083	20
145.048	13
145.089	7
146.044	12
146.098	5
147.049	5
148.059	27
149.064	7
150.053	2
154.067	10
155.033	4
155.075	8
156.03	6
156.082	7
157.045	5
157.089	5
158.053	10
158.098	33
159.062	11
160.059	9
161.044	9
162.075	40
163.081	16
164.065	6
165.069	1
167.032	2
167.076	2
168.082	10
169.046	7
170.045	9
170.098	29
171.029	10
171.105	31
172.059	10
172.111	6
173.063	4
174.074	17
175.077	4
176.09	6
177.097	6
178.106	20
179.108	3
182.046	2
183.057	2
184.059	11
184.113	6
185.042	14
185.119	2
186.077	20
187.078	20
188.056	15
189.061	9
190.068	3
197.066	3
198.074	5
199.058	3
200.054	28
201.094	9
202.105	47
203.108	9
204.085	173
205.087	29
206.084	8
212.089	5
213.074	2
214.07	54
214.203	2
215.077	89
216.079	18
217.077	4
228.085	9
229.091	7
230.1	244
231.102	45
232.1	11
232.307	2
242.1	2
244.116	160
245.124	999
245.9	3
246.126	198
246.974	1
247.124	48
248.126	6
