Mass spectrum: Cyclosulfamuron; LC-ESI-QTOF; MS2; [M-H]-; CID; CE 20V
Name: cyclosulfamuron
Class: Non-natural product
Formula: C17H19N5O6S
Exact mass: 421.105605
SMILES: COC1=CC(=NC(=N1)NC(=O)NS(=O)(=O)NC2=CC=CC=C2C(=O)C3CC3)OC
InChI: InChI=1S/C17H19N5O6S/c1-27-13-9-14(28-2)19-16(18-13)20-17(24)22-29(25,26)21-12-6-4-3-5-11(12)15(23)10-7-8-10/h3-6,9-10,21H,7-8H2,1-2H3,(H2,18,19,20,22,24)
Instrument: X500R QTOF (AB Sciex LLC, MA, USA) coupled to ExionLC AD (AB Sciex LLC, MA, USA).
Instrument type: LC-ESI-QTOF
Ms type: MS2
Ion mode: NEGATIVE
Collision energy: 20 V
Fragmentation mode: CID
Ionization: ESI
Column name: AQ-C18HP 3 microm, 2.1 mm Ã— 150 mm (GL Science, Tokyo, Japan).
Retention time: 34.5 min
Precursor m/z: 420.098327
Precursor type: [M-H]-
m/z	relative intensity
77.9654	30
222.0234	78
239.0499	999
265.0292	233
