Mass spectrum: Propoxycarbazone; LC-ESI-QTOF; MS2; [M+H]+; CID; CE 50V
Name: Propoxycarbazone
Class: Non-natural product
Formula: C15H18N4O7S
Exact mass: 398.08962
SMILES: CCCOC1=NN(C(=O)N1C)C(=O)NS(=O)(=O)C2=CC=CC=C2C(=O)OC
InChI: InChI=1S/C15H18N4O7S/c1-4-9-26-14-16-19(15(22)18(14)2)13(21)17-27(23,24)11-8-6-5-7-10(11)12(20)25-3/h5-8H,4,9H2,1-3H3,(H,17,21)
Instrument: X500R QTOF (AB Sciex LLC, MA, USA) coupled to ExionLC AD (AB Sciex LLC, MA, USA).
Instrument type: LC-ESI-QTOF
Ms type: MS2
Ion mode: POSITIVE
Collision energy: 50 V
Fragmentation mode: CID
Ionization: ESI
Column name: AQ-C18HP 3 microm, 2.1 mm Ã— 150 mm (GL Science, Tokyo, Japan).
Retention time: 31.7 min
Precursor m/z: 399.096897
Precursor type: [M+H]+
m/z	relative intensity
58.0288	32
77.0385	330
79.0541	64
90.0337	181
92.0257	65
116.0455	999
120.0209	86
135.0439	565
146.0233	122
168.9963	68
199.0063	105
