Mass spectrum: Clothianidin; LC-ESI-QTOF; MS2; [M-H]-; CID; CE 20V
Name: Clothianidin
Class: Non-natural product
Formula: C6H8ClN5O2S
Exact mass: 249.008723
SMILES: CNC(=N[N+](=O)[O-])NCC1=CN=C(S1)Cl
InChI: InChI=1S/C6H8ClN5O2S/c1-8-6(11-12(13)14)10-3-4-2-9-5(7)15-4/h2H,3H2,1H3,(H2,8,10,11)
Instrument: X500R QTOF (AB Sciex LLC, MA, USA) coupled to ExionLC AD (AB Sciex LLC, MA, USA).
Instrument type: LC-ESI-QTOF
Ms type: MS2
Ion mode: NEGATIVE
Collision energy: 20 V
Fragmentation mode: CID
Ionization: ESI
Column name: TSKgel ODS-100S 5 um, 2.1 mm Ã— 250 mm, TOSOH
Retention time: 11.2 min
Precursor m/z: 248.001446
Precursor type: [M-H]-
m/z	relative intensity
34.9694	135
45.9935	155
57.9756	999
61.0043	85
111.0022	264
150.0005	168
165.024	826
166.0317	139
248.0015	237
