Mass spectrum: Azoxystrobin; LC-ESI-QTOF; MS2; [M+H]+; CID; CE 40V
Name: Azoxystrobin
Class: Non-natural product
Formula: C22H17N3O5
Exact mass: 403.116821
SMILES: CO/C=C(\C1=CC=CC=C1OC2=NC=NC(=C2)OC3=CC=CC=C3C#N)/C(=O)OC
InChI: InChI=1S/C22H17N3O5/c1-27-13-17(22(26)28-2)16-8-4-6-10-19(16)30-21-11-20(24-14-25-21)29-18-9-5-3-7-15(18)12-23/h3-11,13-14H,1-2H3/b17-13+
Instrument: X500R QTOF (AB Sciex LLC, MA, USA) coupled to ExionLC AD (AB Sciex LLC, MA, USA).
Instrument type: LC-ESI-QTOF
Ms type: MS2
Ion mode: POSITIVE
Collision energy: 40 V
Fragmentation mode: CID
Ionization: ESI
Column name: TSKgel ODS-100S 5 um, 2.1 mm Ã— 250 mm, TOSOH
Retention time: 14.1 min
Precursor m/z: 404.124098
Precursor type: [M+H]+
m/z	relative intensity
134.06	158
143.0601	98
156.0444	103
169.0396	79
171.0548	74
172.0394	181
183.0551	278
201.0428	115
210.0431	110
216.0655	267
272.082	126
273.0874	205
300.0774	124
301.0849	484
316.108	218
328.0719	395
329.0789	974
330.0826	177
344.1021	999
372.0977	525
