Mass spectrum: Pyrazosulfuron-ethyl; LC-ESI-QTOF; MS2; [M+H]+; CID; CE 60V
Name: Pyrazosulfuron-ethyl
Class: Non-natural product
Formula: C14H18N6O7S
Exact mass: 414.095768
SMILES: CCOC(=O)C1=C(N(N=C1)C)S(=O)(=O)NC(=O)NC2=NC(=CC(=N2)OC)OC
InChI: InChI=1S/C14H18N6O7S/c1-5-27-12(21)8-7-15-20(2)11(8)28(23,24)19-14(22)18-13-16-9(25-3)6-10(17-13)26-4/h6-7H,5H2,1-4H3,(H2,16,17,18,19,22)
Instrument: X500R QTOF (AB Sciex LLC, MA, USA) coupled to ExionLC AD (AB Sciex LLC, MA, USA).
Instrument type: LC-ESI-QTOF
Ms type: MS2
Ion mode: POSITIVE
Collision energy: 60 V
Fragmentation mode: CID
Ionization: ESI
Column name: AQ-C18HP 3 microm, 2.1 mm Ã— 150 mm (GL Science, Tokyo, Japan).
Retention time: 33.0 min
Precursor m/z: 415.103045
Precursor type: [M+H]+
m/z	relative intensity
71.0603	42
82.0287	41
83.024	846
93.0082	87
100.0394	44
109.0395	44
139.0503	999
157.0611	276
182.0561	882
188.0127	135
188.9969	156
213.9922	164
