Mass spectrum: Brotizolam; LC-ESI-QQ; MS; ESI; POSITIVE
Name: Brotizolam
Class: Non-natural product
Formula: C15H10BrClN4S
Exact mass: 391.949792
SMILES: CC1=NN=C2N1C3=C(C=C(S3)Br)C(=NC2)C4=CC=CC=C4Cl
InChI: InChI=1S/C15H10BrClN4S/c1-8-19-20-13-7-18-14(9-4-2-3-5-11(9)17)10-6-12(16)22-15(10)21(8)13/h2-6H,7H2,1H3
Instrument: LCMS-8040 coupled to Nexera XR (Shimadzu, Kyoto, Japan).
Instrument type: LC-ESI-QQ
Ms type: MS
Ion mode: POSITIVE
Ionization: ESI
Column name: InertSustain C18 ID 2.1 microm, 2.1 x 100 mm (GL Science, Tokyo, Japan).
Retention time: 8.988 min
m/z	relative intensity
121.1	13
214.2	20
228.3	62
229.2	11
239.3	11
393.1	674
394.1	151
395.1	999
396.1	189
397.1	284
398.1	40
399.1	11
