Mass spectrum: Sulindac; LC-ESI-QQ; MS2; ESI; POSITIVE; CID; CE 30 V; [M+H]+
Name: Sulindac
Class: Non-natural product
Formula: C20H17FO3S
Exact mass: 356.088244
SMILES: CC\1=C(C2=C(/C1=C\C3=CC=C(C=C3)S(=O)C)C=CC(=C2)F)CC(=O)O
InChI: InChI=1S/C20H17FO3S/c1-12-17(9-13-3-6-15(7-4-13)25(2)24)16-8-5-14(21)10-19(16)18(12)11-20(22)23/h3-10H,11H2,1-2H3,(H,22,23)/b17-9-
Instrument: LCMS-8040 coupled to Nexera XR (Shimadzu, Kyoto, Japan).
Instrument type: LC-ESI-QQ
Ms type: MS2
Ion mode: POSITIVE
Collision energy: 30 V
Fragmentation mode: CID
Ionization: ESI
Column name: InertSustain C18 ID 2.1 microm, 2.1 x 100 mm (GL Science, Tokyo, Japan).
Retention time: 7.915 min
Precursor m/z: 357.095521
Precursor type: [M+H]+
m/z	relative intensity
135.2	18
161.2	23
172.1	10
173.2	28
233.1	999
234.2	111
235.2	22
246.2	11
247.2	155
248.2	398
253.3	11
262.0	14
265.0	25
275.3	12
279.2	12
280.1	72
281.2	22
282.2	14
283.2	19
293.1	11
295.2	143
296.2	31
297.1	46
313.3	16
340.2	153
342.1	49
357.2	22
