Mass spectrum: Acemetacin; LC-ESI-QQ; MS; ESI; POSITIVE
Name: Acemetacin
Class: Non-natural product
Formula: C21H18ClNO6
Exact mass: 415.082263
SMILES: CC1=C(C2=C(N1C(=O)C3=CC=C(C=C3)Cl)C=CC(=C2)OC)CC(=O)OCC(=O)O
InChI: InChI=1S/C21H18ClNO6/c1-12-16(10-20(26)29-11-19(24)25)17-9-15(28-2)7-8-18(17)23(12)21(27)13-3-5-14(22)6-4-13/h3-9H,10-11H2,1-2H3,(H,24,25)
Instrument: LCMS-8040 coupled to Nexera XR (Shimadzu, Kyoto, Japan).
Instrument type: LC-ESI-QQ
Ms type: MS
Ion mode: POSITIVE
Ionization: ESI
Column name: InertSustain C18 ID 2.1 microm, 2.1 x 100 mm (GL Science, Tokyo, Japan).
Retention time: 9.263 min
m/z	relative intensity
214.0	13
293.1	11
416.2	999
417.3	199
418.3	215
419.2	89
420.2	11
433.3	133
434.3	38
435.2	59
436.3	12
438.2	88
439.2	21
440.2	34
454.2	83
455.2	21
456.1	20
