Mass spectrum: Quetiapine; LC-ESI-QQ; MS2; ESI; POSITIVE; CID; CE 50 V; [M+H]+
Name: Quetiapine
Class: Non-natural product
Formula: C21H25N3O2S
Exact mass: 383.166736
SMILES: C1CN(CCN1CCOCCO)C2=NC3=CC=CC=C3SC4=CC=CC=C42
InChI: InChI=1S/C21H25N3O2S/c25-14-16-26-15-13-23-9-11-24(12-10-23)21-17-5-1-3-7-19(17)27-20-8-4-2-6-18(20)22-21/h1-8,25H,9-16H2
Instrument: LCMS-8040 coupled to Nexera XR (Shimadzu, Kyoto, Japan).
Instrument type: LC-ESI-QQ
Ms type: MS2
Ion mode: POSITIVE
Collision energy: 50 V
Fragmentation mode: CID
Ionization: ESI
Column name: InertSustain C18 ID 2.1 microm, 2.1 x 100 mm (GL Science, Tokyo, Japan).
Retention time: 9.705 min
Precursor m/z: 384.174013
Precursor type: [M+H]+
m/z	relative intensity
41.3	19
42.3	37
44.3	12
45.3	96
54.2	11
68.3	15
70.3	135
88.3	12
96.3	16
117.3	11
118.3	13
139.2	93
151.2	29
158.1	10
164.3	20
166.1	10
177.1	135
178.2	334
180.3	17
183.1	301
184.1	29
192.3	16
193.1	10
194.1	40
204.2	40
205.2	22
206.1	20
209.1	258
210.1	579
218.3	20
219.3	68
221.2	999
226.2	16
232.3	46
245.2	16
247.2	312
251.1	24
253.2	112
263.2	15
277.2	10
279.1	24
