Mass spectrum: Indanofan; LC-ESI-QTOF; MS2; [M+H]+; CID; CE 50V
Name: Indanofan
Class: Non-natural product
Formula: C20H17ClO3
Exact mass: 340.086622
SMILES: CCC1(C(=O)C2=CC=CC=C2C1=O)CC3(CO3)C4=CC(=CC=C4)Cl
InChI: InChI=1S/C20H17ClO3/c1-2-19(17(22)15-8-3-4-9-16(15)18(19)23)11-20(12-24-20)13-6-5-7-14(21)10-13/h3-10H,2,11-12H2,1H3
Instrument: X500R QTOF (AB Sciex LLC, MA, USA) coupled to ExionLC AD (AB Sciex LLC, MA, USA).
Instrument type: LC-ESI-QTOF
Ms type: MS2
Ion mode: POSITIVE
Collision energy: 50 V
Fragmentation mode: CID
Ionization: ESI
Column name: TSKgel ODS-100S 5 um, 2.1 mm Ã— 250 mm, TOSOH
Retention time: 15.2 min
Precursor m/z: 341.093899
Precursor type: [M+H]+
m/z	relative intensity
43.0176	60
77.0386	112
89.0386	57
91.0541	392
103.054	415
105.0335	197
115.054	552
116.0618	113
117.0697	254
125.0151	522
127.0541	97
128.062	357
129.0697	167
131.0491	205
131.0853	469
132.057	132
133.0285	53
139.0307	135
141.07	487
144.0571	82
145.0645	173
155.0509	246
159.0441	587
159.0799	63
160.0517	134
169.0647	318
173.0599	610
175.0754	999
231.081	83
241.101	86
