Mass spectrum: Quetiapine; LC-ESI-QQ; MS; ESI; POSITIVE
Name: Quetiapine
Class: Non-natural product
Formula: C21H25N3O2S
Exact mass: 383.166736
SMILES: C1CN(CCN1CCOCCO)C2=NC3=CC=CC=C3SC4=CC=CC=C42
InChI: InChI=1S/C21H25N3O2S/c25-14-16-26-15-13-23-9-11-24(12-10-23)21-17-5-1-3-7-19(17)27-20-8-4-2-6-18(20)22-21/h1-8,25H,9-16H2
Instrument: LCMS-8040 coupled to Nexera XR (Shimadzu, Kyoto, Japan).
Instrument type: LC-ESI-QQ
Ms type: MS
Ion mode: POSITIVE
Ionization: ESI
Column name: InertSustain C18 ID 2.1 microm, 2.1 x 100 mm (GL Science, Tokyo, Japan).
Retention time: 9.705 min
m/z	relative intensity
384.3	999
385.3	221
386.3	83
387.3	16
