Mass spectrum: Acibenzolar-S-methyl; LC-ESI-QTOF; MS2; [M+H]+; CID; CE 40 V
Name: Acibenzolar-S-methyl
Class: Non-natural product
Formula: C8H6N2OS2
Exact mass: 209.992155
SMILES: CSC(=O)C1=C2C(=CC=C1)N=NS2
InChI: InChI=1S/C8H6N2OS2/c1-12-8(11)5-3-2-4-6-7(5)13-10-9-6/h2-4H,1H3
Instrument: X500R QTOF (AB Sciex LLC, MA, USA) coupled to ExionLC AD (AB Sciex LLC, MA, USA).
Instrument type: LC-ESI-QTOF
Ms type: MS2
Ion mode: POSITIVE
Collision energy: 40 V
Fragmentation mode: CID
Ionization: ESI
Column name: TSKgel ODS-100S 5 um, 2.1 mm Ã— 250 mm, TOSOH
Retention time: 15.3 min
Precursor m/z: 210.999432
Precursor type: [M+H]+
m/z	relative intensity
68.9793	37
81.9871	91
91.0541	87
96.0027	140
106.9951	87
108.0028	171
109.0105	64
121.0106	154
134.9898	75
136.0088	999
139.9749	247
