Mass spectrum: Chlorzoxazone; LC-ESI-QQ; MS2; ESI; NEGATIVE; CID; CE 50 V; [M-H]-
Name: Chlorzoxazone
Class: Non-natural product
Formula: C7H4ClNO2
Exact mass: 168.993053
SMILES: C1=CC2=C(C=C1Cl)NC(=O)O2
InChI: InChI=1S/C7H4ClNO2/c8-4-1-2-6-5(3-4)9-7(10)11-6/h1-3H,(H,9,10)
Instrument: LCMS-8040 coupled to Nexera XR (Shimadzu, Kyoto, Japan).
Instrument type: LC-ESI-QQ
Ms type: MS2
Ion mode: NEGATIVE
Collision energy: 50 V
Fragmentation mode: CID
Ionization: ESI
Column name: InertSustain C18 ID 2.1 microm, 2.1 x 100 mm (GL Science, Tokyo, Japan).
Retention time: 8.312 min
Precursor m/z: 167.985776
Precursor type: [M-H]-
m/z	relative intensity
26.2	90
35.1	999
42.1	284
50.0	246
54.0	16
60.5	28
61.2	37
64.9	57
76.1	91
81.9	50
104.3	14
131.9	200
167.8	448
