Mass spectrum: 5-(4-{[2-(tetradecanoylamino)ethyl]amino}-4-oxobutanamido)-N,N-dimethylpentan-1-amine N-oxide; ESI-QTOF; MS2; ESI; [M+H]+; CE 50 V
Name: 5-(4-{[2-(tetradecanoylamino)ethyl]amino}-4-oxobutanamido)-N,N-dimethylpentan-1-amine N-oxide
Name: AAO 13-2-2-5
Class: Non-natural product
Formula: C27H54N4O4
Exact mass: 498.41449
SMILES: O=C(NCCNC(=O)CCCCCCCCCCCCC)CCC(=O)NCCCCC[N+]([O-])(C)C
InChI: InChI=1S/C27H54N4O4/c1-4-5-6-7-8-9-10-11-12-13-15-18-25(32)29-22-23-30-27(34)20-19-26(33)28-21-16-14-17-24-31(2,3)35/h4-24H2,1-3H3,(H,28,33)(H,29,32)(H,30,34)
Instrument: X500R QTOF (AB Sciex LLC, MA, USA)
Instrument type: ESI-QTOF
Ms type: MS2
Ion mode: POSITIVE
Collision energy: 50 V
Fragmentation mode: CID
Ionization: ESI
Precursor m/z: 499.42177 
Precursor type: [M+H]+
m/z	relative intensity
41.03822	3
44.04910	4
57.06948	3
58.06476	37
69.06947	11
84.04400	8
84.08038	24
86.09601	40
95.08512	4
98.05961	5
98.09598	5
99.05486	5
100.03891	121
100.11159	4
112.03887	20
114.12726	11
125.07049	64
126.05451	60
140.10649	13
142.09702	15
143.08101	101
167.11743	9
168.10147	281
185.12793	31
210.15945	16
211.14356	13
228.17013	7
253.26317	11
254.24696	999
271.27370	11
353.27897	14
499.42051	19
