Mass spectrum: Flutoprazepam; LC-ESI-QQ; MS2; ESI; POSITIVE; CID; CE 50 V; [M+H]+
Name: Flutoprazepam
Class: Non-natural product
Formula: C19H16ClFN2O
Exact mass: 342.093511
SMILES: C1CC1CN2C(=O)CN=C(C3=C2C=CC(=C3)Cl)C4=CC=CC=C4F
InChI: InChI=1S/C19H16ClFN2O/c20-13-7-8-17-15(9-13)19(14-3-1-2-4-16(14)21)22-10-18(24)23(17)11-12-5-6-12/h1-4,7-9,12H,5-6,10-11H2
Instrument: LCMS-8040 coupled to Nexera XR (Shimadzu, Kyoto, Japan).
Instrument type: LC-ESI-QQ
Ms type: MS2
Ion mode: POSITIVE
Collision energy: 50 V
Fragmentation mode: CID
Ionization: ESI
Column name: InertSustain C18 ID 2.1 microm, 2.1 x 100 mm (GL Science, Tokyo, Japan).
Retention time: 10.152 min
Precursor m/z: 343.100788
Precursor type: [M+H]+
m/z	relative intensity
29.4	39
30.4	14
53.3	16
55.3	213
77.3	157
80.1	20
83.1	20
89.3	10
90.1	12
102.1	46
103.3	16
104.3	114
105.2	133
109.2	178
111.1	27
112.2	18
113.2	76
117.3	19
122.1	56
123.1	34
124.1	16
129.3	11
130.2	60
133.1	31
134.1	67
136.1	16
138.1	87
140.1	999
150.1	69
151.1	30
152.3	19
158.2	21
163.1	32
164.0	21
165.1	242
166.0	38
166.9	15
177.1	20
178.2	13
179.2	80
180.2	18
183.1	27
190.1	13
192.6	11
197.1	15
198.2	95
205.1	69
206.2	145
207.2	19
208.1	12
209.2	23
210.2	45
211.1	81
214.2	142
217.1	18
224.2	39
225.1	103
226.2	375
227.3	24
228.1	18
232.2	28
237.3	15
239.0	23
240.1	13
245.1	39
248.1	10
259.2	86
260.3	14
270.1	10
271.3	18
273.2	13
288.9	55
