Mass spectrum: Indanofan; LC-ESI-QTOF; MS2; [M+H]+; CID; CE 30V
Name: Indanofan
Class: Non-natural product
Formula: C20H17ClO3
Exact mass: 340.086622
SMILES: CCC1(C(=O)C2=CC=CC=C2C1=O)CC3(CO3)C4=CC(=CC=C4)Cl
InChI: InChI=1S/C20H17ClO3/c1-2-19(17(22)15-8-3-4-9-16(15)18(19)23)11-20(12-24-20)13-6-5-7-14(21)10-13/h3-10H,2,11-12H2,1H3
Instrument: X500R QTOF (AB Sciex LLC, MA, USA) coupled to ExionLC AD (AB Sciex LLC, MA, USA).
Instrument type: LC-ESI-QTOF
Ms type: MS2
Ion mode: POSITIVE
Collision energy: 30 V
Fragmentation mode: CID
Ionization: ESI
Column name: TSKgel ODS-100S 5 um, 2.1 mm Ã— 250 mm, TOSOH
Retention time: 15.2 min
Precursor m/z: 341.093899
Precursor type: [M+H]+
m/z	relative intensity
43.0177	24
125.0153	168
128.0622	49
131.0856	189
139.0311	91
143.0855	61
145.0649	160
159.0803	251
167.0259	60
169.0649	145
173.0599	68
175.0752	999
187.0754	382
