Mass spectrum: Halosulfuron methyl; LC-ESI-QTOF; MS; NEGATIVE
Name: Halosulfuron methyl
Class: Non-natural product
Formula: C13H15ClN6O7S
Exact mass: 434.041146
SMILES: CN1C(=C(C(=N1)Cl)C(=O)OC)S(=O)(=O)NC(=O)NC2=NC(=CC(=N2)OC)OC
InChI: InChI=1S/C13H15ClN6O7S/c1-20-10(8(9(14)18-20)11(21)27-4)28(23,24)19-13(22)17-12-15-6(25-2)5-7(16-12)26-3/h5H,1-4H3,(H2,15,16,17,19,22)
Instrument: X500R QTOF (AB Sciex LLC, MA, USA) coupled to ExionLC AD (AB Sciex LLC, MA, USA).
Instrument type: LC-ESI-QTOF
Ms type: MS
Ion mode: NEGATIVE
Ionization: ESI
Column name: AQ-C18HP 3 microm, 2.1 mm Ã— 150 mm (GL Science, Tokyo, Japan).
Retention time: 33.7 min
m/z	relative intensity
433.0338	999
434.0364	188
435.0312	411
436.0338	73
437.0301	27
