Mass spectrum: Thiopental; LC-ESI-QQ; MS; ESI; NEGATIVE
Name: Thiopental
Class: Non-natural product
Formula: C11H18N2O2S
Exact mass: 242.108891
SMILES: CCCC(C)C1(C(=O)NC(=S)NC1=O)CC
InChI: InChI=1S/C11H18N2O2S/c1-4-6-7(3)11(5-2)8(14)12-10(16)13-9(11)15/h7H,4-6H2,1-3H3,(H2,12,13,14,15,16)
Instrument: LCMS-8040 coupled to Nexera XR (Shimadzu, Kyoto, Japan).
Instrument type: LC-ESI-QQ
Ms type: MS
Ion mode: NEGATIVE
Ionization: ESI
Column name: InertSustain C18 ID 2.1 microm, 2.1 x 100 mm (GL Science, Tokyo, Japan).
Retention time: 9.086 min
m/z	relative intensity
241.1	999
242.1	157
243.1	54
244.1	10
255.1	68
299.1	12
309.1	29
353.2	12
