Mass spectrum: 6-(4-{[2-(tetradecanoylamino)ethyl]amino}-4-oxobutanamido)-N,N-dimethylhexan-1-amine N-oxide; ESI-QTOF; MS2; ESI; [M-H]-; CE 60 V
Name: 6-(4-{[2-(tetradecanoylamino)ethyl]amino}-4-oxobutanamido)-N,N-dimethylhexan-1-amine N-oxide
Name: AAO 13-2-2-6
Class: Non-natural product
Formula: C28H56N4O4
Exact mass: 512.43014
SMILES: O=C(NCCNC(=O)CCCCCCCCCCCCC)CCC(=O)NCCCCCC[N+]([O-])(C)C
InChI: InChI=1S/C28H56N4O4/c1-4-5-6-7-8-9-10-11-12-13-16-19-26(33)30-23-24-31-28(35)21-20-27(34)29-22-17-14-15-18-25-32(2,3)36/h4-25H2,1-3H3,(H,29,34)(H,30,33)(H,31,35)
Instrument: X500R QTOF (AB Sciex LLC, MA, USA)
Instrument type: ESI-QTOF
Ms type: MS2
Ion mode: NEGATIVE
Collision energy: 60 V
Fragmentation mode: CID
Ionization: ESI
Precursor m/z: 511.422863
Precursor type: [M-H]-
m/z	relative intensity
41.99828	99
70.02949	23
97.04039	37
98.02438	736
101.07164	25
113.07163	39
122.07196	32
123.05600	34
140.08248	63
141.06655	202
152.10765	206
158.09309	31
162.09197	21
179.11850	114
180.10252	571
209.12905	26
209.19060	38
226.21710	131
240.17118	49
240.23270	127
252.23273	31
255.23229	119
267.24354	36
269.25912	999
