Mass spectrum: 6-(4-{[5-(tetradecanoylamino)pentyl]amino}-4-oxobutanamido)-N,N-dimethylhexan-1-amine N-oxide; ESI-QTOF; MS2; ESI; [M+H]+; CE 40 V
Name: 6-(4-{[5-(tetradecanoylamino)pentyl]amino}-4-oxobutanamido)-N,N-dimethylhexan-1-amine N-oxide
Name: AAO 13-5-2-6
Class: Non-natural product
Formula: C31H62N4O4
Exact mass: 554.477090
SMILES: [O-][N+](C)(C)CCCCCCNC(=O)CCC(=O)NCCCCCNC(=O)CCCCCCCCCCCCC
InChI: InChI=1S/C31H62N4O4/c1-4-5-6-7-8-9-10-11-12-13-17-22-29(36)32-26-19-16-20-27-34-31(38)24-23-30(37)33-25-18-14-15-21-28-35(2,3)39/h4-28H2,1-3H3,(H,32,36)(H,33,37)(H,34,38)
Instrument: X500R QTOF (AB Sciex LLC, MA, USA)
Instrument type: ESI-QTOF
Ms type: MS2
Ion mode: POSITIVE
Collision energy: 40 V
Fragmentation mode: CID
Ionization: ESI
Precursor m/z: 555.484367 
Precursor type: [M+H]+
m/z	relative intensity
58.06485	6
86.09616	10
98.09615	9
100.03905	8
100.11177	10
114.12742	4
161.16459	14
168.10162	9
182.1173	43
185.12811	47
227.17507	13
243.17001	15
284.23288	10
296.29429	89
313.3208	88
345.28556	14
395.32616	122
476.42025	37
494.43076	27
537.47288	25
555.48253	999
