Mass spectrum: Indanofan; LC-ESI-QTOF; MS2; [M+H]+; CID; CE 60V
Name: Indanofan
Class: Non-natural product
Formula: C20H17ClO3
Exact mass: 340.086622
SMILES: CCC1(C(=O)C2=CC=CC=C2C1=O)CC3(CO3)C4=CC(=CC=C4)Cl
InChI: InChI=1S/C20H17ClO3/c1-2-19(17(22)15-8-3-4-9-16(15)18(19)23)11-20(12-24-20)13-6-5-7-14(21)10-13/h3-10H,2,11-12H2,1H3
Instrument: X500R QTOF (AB Sciex LLC, MA, USA) coupled to ExionLC AD (AB Sciex LLC, MA, USA).
Instrument type: LC-ESI-QTOF
Ms type: MS2
Ion mode: POSITIVE
Collision energy: 60 V
Fragmentation mode: CID
Ionization: ESI
Column name: TSKgel ODS-100S 5 um, 2.1 mm Ã— 250 mm, TOSOH
Retention time: 15.2 min
Precursor m/z: 341.093899
Precursor type: [M+H]+
m/z	relative intensity
43.0177	55
77.0383	268
89.0382	116
91.0539	593
98.9993	46
103.0539	569
105.0333	290
115.0539	999
116.0616	160
117.0695	240
125.0149	411
127.054	200
128.0618	418
129.069	144
131.0489	336
131.085	182
132.0566	170
141.0694	386
145.0642	106
155.0497	392
159.0437	397
160.0516	94
169.0644	117
173.0593	302
175.0752	218
202.0772	102
