Mass spectrum: 1-Fluoro-4-(6,6,6-trifluoro-3-hexyenyl)benzene; GC-EI-TOF; MS; POSITIVE; 70 V
Name: 1-Fluoro-4-(6,6,6-trifluoro-3-hexyenyl)benzene
Class: Non-natural compound
Formula: C12H12F4
Exact mass: 232.087512
SMILES: FC(F)(F)C\C=C\CCc1ccc(F)cc1
InChI: InChI=1S/C12H12F4/c13-11-7-5-10(6-8-11)4-2-1-3-9-12(14,15)16/h1,3,5-8H,2,4,9H2/b3-1+
Instrument: JMS-T100GCV (JEOL, Akishima, Japan) coupled to Agilent 7890A (Santa Clara, CA, USA) gas chromatograph.
Instrument type: GC-EI-TOF
Ms type: MS
Ion mode: POSITIVE
Ionization: EI
Column name: ZB-1MS 7HM-G011-11 sn:313446 (Agilent, Wilmington, USA) with the length 30.0 m, I.D. 0.25 mm, and thickness 0.25 micrometer.
Retention time: 6.99 min
m/z	relative intensity
27.023	9
28.006	22
31.99	13
39.023	24
41.039	5
50.016	4
51.023	12
53.039	5
54.047	5
57.014	20
59.03	26
62.016	4
63.023	15
64.027	2
65.039	4
68.995	6
70.022	5
75.023	10
77.021	7
81.014	6
83.03	81
84.033	6
89.039	10
95.029	6
96.038	10
101.039	8
103.047	3
107.03	17
108.036	7
109.045	999
109.562	3
109.915	2
110.049	82
111.052	4
115.055	4
120.037	4
121.045	6
122.053	7
123.053	2
127.049	2
133.045	13
134.051	3
135.061	3
145.038	2
146.053	9
147.06	11
149.076	3
232.088	34
233.091	5
