Mass spectrum: Amlodipine; LC-ESI-QQ; MS; ESI; NEGATIVE
Name: Amlodipine
Class: Non-natural product
Formula: C20H25ClN2O5
Exact mass: 408.145193
SMILES: CCOC(=O)C1=C(NC(=C(C1C2=CC=CC=C2Cl)C(=O)OC)C)COCCN
InChI: InChI=1S/C20H25ClN2O5/c1-4-28-20(25)18-15(11-27-10-9-22)23-12(2)16(19(24)26-3)17(18)13-7-5-6-8-14(13)21/h5-8,17,23H,4,9-11,22H2,1-3H3
Instrument: LCMS-8040 coupled to Nexera XR (Shimadzu, Kyoto, Japan).
Instrument type: LC-ESI-QQ
Ms type: MS
Ion mode: NEGATIVE
Ionization: ESI
Column name: InertSustain C18 ID 2.1 microm, 2.1 x 100 mm (GL Science, Tokyo, Japan).
Retention time: 8.556 min
m/z	relative intensity
295.2	11
407.2	999
408.2	204
409.2	315
410.2	79
443.2	94
444.2	25
445.2	68
446.1	13
447.2	13
497.2	10
