Mass spectrum: S-Ethyl 3,5-bis(trifluoromethyl)benzothioate; GC-EI-TOF; MS; POSITIVE; 70 V
Name: S-Ethyl 3,5-bis(trifluoromethyl)benzothioate
Class: Non-natural compound
Formula: C11H8F6OS
Exact mass: 302.020004
SMILES: CCSC(=O)C1=CC(=CC(=C1)C(F)(F)F)C(F)(F)F
InChI: InChI=1S/C11H8F6OS/c1-2-19-9(18)6-3-7(10(12,13)14)5-8(4-6)11(15,16)17/h3-5H,2H2,1H3
Instrument: JMS-T100GCV (JEOL, Akishima, Japan) coupled to Agilent 7890A (Santa Clara, CA, USA) gas chromatograph.
Instrument type: GC-EI-TOF
Ms type: MS
Ion mode: POSITIVE
Ionization: EI
Column name: ZB-1MS 7HM-G011-11 sn:313446 (Agilent, Wilmington, USA) with the length 30.0 m, I.D. 0.32 mm, and thickness 0.25 micrometer.
Retention time: 7.10 min
m/z	relative intensity
26.016	5
27.024	41
28.006	9
28.031	4
29.039	22
31.99	5
34.996	14
44.98	13
45.988	5
50.016	4
57.014	3
57.988	6
58.996	13
60.003	9
61.011	28
63.022	2
68.995	11
74.016	7
75.005	15
93.013	3
94.022	7
99.004	8
113.019	3
123.004	4
125.02	19
132.019	2
143.011	39
144.018	49
145.023	6
156.994	2
162.009	9
163.017	76
164.021	7
174.009	2
175.991	2
193.007	15
194.015	48
195.02	7
212.005	5
213.013	366
213.663	1
214.017	37
223.018	6
224.979	6
239.999	2
241.008	999
241.779	3
242.012	109
243.014	8
243.412	1
243.512	1
244.019	1
244.985	3
256.984	4
273.988	6
283.021	60
284.024	9
285.018	3
302.02	59
303.024	9
304.02	3
