Mass spectrum: Brotizolam; LC-ESI-QQ; MS2; ESI; POSITIVE; CID; CE 40 V; [M+H]+ Isotopolog ion
Name: Brotizolam
Class: Non-natural product
Formula: C15H10BrClN4S
Exact mass: 391.949792
SMILES: CC1=NN=C2N1C3=C(C=C(S3)Br)C(=NC2)C4=CC=CC=C4Cl
InChI: InChI=1S/C15H10BrClN4S/c1-8-19-20-13-7-18-14(9-4-2-3-5-11(9)17)10-6-12(16)22-15(10)21(8)13/h2-6H,7H2,1H3
Instrument: LCMS-8040 coupled to Nexera XR (Shimadzu, Kyoto, Japan).
Instrument type: LC-ESI-QQ
Ms type: MS2
Ion mode: POSITIVE
Collision energy: 40 V
Fragmentation mode: CID
Ionization: ESI
Column name: InertSustain C18 ID 2.1 microm, 2.1 x 100 mm (GL Science, Tokyo, Japan).
Retention time: 8.988 min
Precursor m/z: 394.955022
Precursor type: [M+H]+
m/z	relative intensity
39.3	22
42.3	48
56.3	32
57.3	95
58.2	11
64.0	22
66.2	98
72.2	22
74.1	22
79.3	22
96.2	58
102.2	33
103.2	33
104.2	22
108.2	85
109.3	506
111.2	24
115.3	33
116.4	22
121.3	22
122.3	22
123.4	22
128.8	22
130.3	21
131.2	11
133.2	193
134.1	122
135.1	78
136.2	466
137.4	40
138.2	139
139.3	22
140.4	26
144.2	23
147.3	11
148.1	92
149.0	165
150.3	30
151.1	21
152.1	19
153.2	51
154.2	20
156.1	44
158.1	41
162.0	41
164.2	79
165.1	32
166.1	61
167.1	60
171.1	118
172.6	22
174.1	43
176.1	114
177.2	592
178.1	119
179.2	73
180.2	53
182.1	33
183.1	86
184.2	22
185.4	13
188.1	209
189.0	123
190.0	369
191.0	21
192.3	55
193.2	11
194.9	22
196.2	89
197.2	11
198.0	32
199.2	33
200.1	67
201.1	243
202.1	81
203.2	57
204.2	78
205.1	113
206.1	163
206.9	63
209.0	243
210.1	999
211.0	328
212.2	100
213.0	207
214.1	232
214.9	77
216.2	61
217.2	42
218.0	70
219.1	130
220.0	102
221.1	238
222.1	119
223.2	121
224.1	278
225.2	53
226.0	130
227.2	153
228.2	21
229.2	92
229.9	75
231.3	20
232.2	52
233.3	87
234.2	33
235.2	481
236.0	68
237.2	42
238.2	111
240.3	66
241.2	107
243.0	12
244.1	287
245.1	544
246.1	475
247.1	560
248.1	252
249.2	77
249.9	42
251.2	266
253.3	52
256.0	51
257.9	209
259.1	256
260.2	88
261.1	148
262.2	64
263.1	22
263.8	21
269.1	47
271.0	292
273.2	135
277.8	122
279.1	612
282.1	357
283.1	33
284.1	133
285.2	190
287.1	85
288.3	44
289.0	73
290.2	61
291.1	228
292.4	17
297.0	22
304.9	44
310.0	22
312.2	22
314.1	726
316.1	450
317.1	41
326.0	22
326.9	26
332.5	33
341.0	58
349.9	11
357.8	11
360.2	74
366.4	118
395.0	381
