Mass spectrum: Rilmazafone; LC-ESI-QQ; MS; ESI; NEGATIVE
Name: Rilmazafone
Class: Non-natural product
Formula: C21H20Cl2N6O3
Exact mass: 474.097371
SMILES: CN(C)C(=O)C1=NN(C(=N1)CNC(=O)CN)C2=C(C=C(C=C2)Cl)C(=O)C3=CC=CC=C3Cl
InChI: InChI=1S/C21H20Cl2N6O3/c1-28(2)21(32)20-26-17(11-25-18(30)10-24)29(27-20)16-8-7-12(22)9-14(16)19(31)13-5-3-4-6-15(13)23/h3-9H,10-11,24H2,1-2H3,(H,25,30)
Instrument: LCMS-8040 coupled to Nexera XR (Shimadzu, Kyoto, Japan).
Instrument type: LC-ESI-QQ
Ms type: MS
Ion mode: NEGATIVE
Ionization: ESI
Column name: InertSustain C18 ID 2.1 microm, 2.1 x 100 mm (GL Science, Tokyo, Japan).
Retention time: 8.244 min
m/z	relative intensity
228.0	16
242.2	54
303.0	10
361.1	25
416.2	10
455.2	41
457.1	41
473.2	999
474.2	242
475.1	617
476.1	157
477.1	112
478.1	33
509.1	110
510.1	31
511.1	99
512.2	23
513.1	39
519.2	579
520.2	154
521.1	366
522.2	88
523.2	73
524.2	19
536.1	11
563.2	33
564.2	19
565.2	23
