Mass spectrum: Midazolam; LC-ESI-QQ; MS2; ESI; POSITIVE; CID; CE 40 V; [M+H]+
Name: Midazolam
Class: Non-natural product
Formula: C18H13ClFN3
Exact mass: 325.078191
SMILES: CC1=NC=C2N1C3=C(C=C(C=C3)Cl)C(=NC2)C4=CC=CC=C4F
InChI: InChI=1S/C18H13ClFN3/c1-11-21-9-13-10-22-18(14-4-2-3-5-16(14)20)15-8-12(19)6-7-17(15)23(11)13/h2-9H,10H2,1H3
Instrument: LCMS-8040 coupled to Nexera XR (Shimadzu, Kyoto, Japan).
Instrument type: LC-ESI-QQ
Ms type: MS2
Ion mode: POSITIVE
Collision energy: 40 V
Fragmentation mode: CID
Ionization: ESI
Column name: InertSustain C18 ID 2.1 microm, 2.1 x 100 mm (GL Science, Tokyo, Japan).
Retention time: 9.584 min
Precursor m/z: 326.085468
Precursor type: [M+H]+
m/z	relative intensity
42.3	59
54.3	28
55.3	82
68.3	15
77.1	10
91.0	10
95.3	55
101.3	42
102.2	113
111.0	33
115.3	13
117.2	36
121.0	35
123.3	16
126.2	36
128.2	148
129.2	545
135.1	25
136.2	33
137.0	24
143.1	18
146.1	17
147.1	47
148.0	21
149.1	16
152.2	49
153.2	44
155.1	42
160.2	15
162.1	40
163.1	83
164.0	68
168.2	17
169.1	39
170.2	122
173.2	17
174.0	13
175.2	20
176.0	59
177.1	42
178.2	17
182.1	114
183.1	150
184.1	43
189.1	184
189.9	31
195.1	18
196.2	194
197.9	10
201.2	20
202.0	42
203.1	42
205.1	30
207.3	20
208.2	192
209.1	760
213.2	10
215.2	51
217.1	74
222.2	380
223.2	999
224.1	74
227.3	32
229.2	80
230.0	71
231.1	43
233.2	24
236.1	24
237.1	74
238.2	13
239.0	10
242.1	18
243.2	104
244.0	109
245.1	32
246.8	11
249.1	755
250.2	295
253.0	16
255.9	18
257.1	121
258.1	238
259.1	10
261.3	15
262.2	18
263.2	15
264.2	19
265.1	58
268.1	30
269.2	18
270.1	85
271.1	40
271.8	17
273.1	37
276.2	70
283.2	31
284.1	83
285.1	78
289.1	121
291.2	857
294.1	19
299.3	15
307.2	38
309.1	88
325.3	66
