Mass spectrum: Mepanipyrim; LC-ESI-QTOF; MS2; [M+H]+; CID; CE 10V
Name: Mepanipyrim
Class: Non-natural product
Formula: C14H13N3
Exact mass: 223.110947
SMILES: CC#CC1=NC(=NC(=C1)C)NC2=CC=CC=C2
InChI: InChI=1S/C14H13N3/c1-3-7-13-10-11(2)15-14(17-13)16-12-8-5-4-6-9-12/h4-6,8-10H,1-2H3,(H,15,16,17)
Instrument: X500R QTOF (AB Sciex LLC, MA, USA) coupled to ExionLC AD (AB Sciex LLC, MA, USA).
Instrument type: LC-ESI-QTOF
Ms type: MS2
Ion mode: POSITIVE
Collision energy: 10 V
Fragmentation mode: CID
Ionization: ESI
Column name: TSKgel ODS-100S 5 um, 2.1 mm Ã— 250 mm, TOSOH
Retention time: 15.1 min
Precursor m/z: 224.118224
Precursor type: [M+H]+
m/z	relative intensity
224.1178	999
