Mass spectrum: Propyphenazone; LC-ESI-QQ; MS2; ESI; POSITIVE; CID; CE 30 V; [M+H]+
Name: Propyphenazone
Class: Non-natural product
Formula: C14H18N2O
Exact mass: 230.141905
SMILES: CC1=C(C(=O)N(N1C)C2=CC=CC=C2)C(C)C
InChI: InChI=1S/C14H18N2O/c1-10(2)13-11(3)15(4)16(14(13)17)12-8-6-5-7-9-12/h5-10H,1-4H3
Instrument: LCMS-8040 coupled to Nexera XR (Shimadzu, Kyoto, Japan).
Instrument type: LC-ESI-QQ
Ms type: MS2
Ion mode: POSITIVE
Collision energy: 30 V
Fragmentation mode: CID
Ionization: ESI
Column name: InertSustain C18 ID 2.1 microm, 2.1 x 100 mm (GL Science, Tokyo, Japan).
Retention time: 8.601 min
Precursor m/z: 231.149182
Precursor type: [M+H]+
m/z	relative intensity
30.2	11
41.2	17
42.2	21
43.2	47
44.2	23
55.2	51
56.2	999
58.2	46
65.2	10
68.2	14
69.2	14
70.1	13
72.3	14
77.2	143
79.2	38
81.2	38
82.2	43
83.3	11
91.3	12
92.1	90
93.2	22
94.2	40
95.2	40
96.2	107
97.1	14
98.2	17
100.3	11
103.2	19
104.2	75
105.1	20
106.0	10
110.2	32
112.2	89
115.1	16
117.2	69
118.2	100
119.0	11
120.2	183
123.2	18
124.2	42
128.1	22
130.1	64
131.1	79
132.0	32
133.1	23
134.3	15
141.0	17
142.1	11
144.1	72
145.2	29
146.2	125
147.2	12
148.1	25
156.2	12
157.2	17
159.1	16
160.1	21
161.2	29
172.1	25
173.2	16
174.0	16
186.1	35
187.1	18
188.1	13
189.2	252
201.2	190
231.2	234
