Mass spectrum: Diclomezine; LC-ESI-QTOF; MS2; [M+H]+; CID; CE 30V
Name: Diclomezine
Class: Non-natural product
Formula: C11H8Cl2N2O
Exact mass: 254.001368
SMILES: CC1=C(C=C(C=C1Cl)C2=NNC(=O)C=C2)Cl
InChI: InChI=1S/C11H8Cl2N2O/c1-6-8(12)4-7(5-9(6)13)10-2-3-11(16)15-14-10/h2-5H,1H3,(H,15,16)
Instrument: X500R QTOF (AB Sciex LLC, MA, USA) coupled to ExionLC AD (AB Sciex LLC, MA, USA).
Instrument type: LC-ESI-QTOF
Ms type: MS2
Ion mode: POSITIVE
Collision energy: 30 V
Fragmentation mode: CID
Ionization: ESI
Column name: AQ-C18HP 3 microm, 2.1 mm Ã— 150 mm (GL Science, Tokyo, Japan).
Retention time: 31.8 min
Precursor m/z: 255.008645
Precursor type: [M+H]+
m/z	relative intensity
80.0131	49
122.9994	27
129.07	33
140.0262	16
141.0339	103
158.9758	81
163.0303	47
174.9948	52
176.0027	80
185.0694	40
192.0449	44
209.988	88
219.0314	55
220.0395	62
236.9978	81
255.0081	999
