Mass spectrum: Methyl 2-(3-(4-fluorobenzoyl)phenyl)propanoate; GC-EI-TOF; MS; POSITIVE; 70 V
Name: Methyl 2-(3-(4-fluorobenzoyl)phenyl)propanoate
Class: Non-natural compound
Formula: C17H15FO3
Exact mass: 286.100523
SMILES: O=C(c1ccc(F)cc1)c1cccc(c1)C(C)C(=O)OC
InChI: InChI=1S/C17H15FO3/c1-11(17(20)21-2)13-4-3-5-14(10-13)16(19)12-6-8-15(18)9-7-12/h3-11H,1-2H3
Instrument: JMS-T100GCV (JEOL, Akishima, Japan) coupled to Agilent 7890A (Santa Clara, CA, USA) gas chromatograph.
Instrument type: GC-EI-TOF
Ms type: MS
Ion mode: POSITIVE
Ionization: EI
Column name: DB-5MS 122-5532 USA360633H (Agilent, Wilmington, USA) with the length 30.0 m, I.D. 0.25 mm, and thickness 0.25 micrometer.
Retention time: 11.33 min
m/z	relative intensity
27.025	11
28.007	16
31.991	9
39.025	18
43.02	8
50.017	15
51.025	32
52.033	11
53.04	8
59.015	71
63.025	20
65.041	9
69.016	8
75.025	83
76.032	26
77.041	108
78.048	68
79.054	9
89.041	12
91.057	14
94.024	15
95.031	527
96.035	32
102.049	27
103.056	176
104.064	83
105.034	7
105.068	9
113.545	6
120.057	5
123.026	964
124.029	70
125.034	5
131.051	40
132.058	15
133.043	8
163.076	8
170.054	16
171.061	6
177.07	5
178.079	6
179.086	5
183.062	31
184.069	13
191.072	108
192.076	14
196.07	15
197.077	8
199.057	37
200.061	5
207.074	4
209.079	10
212.065	73
213.069	14
225.072	10
226.079	38
227.088	999
228.091	161
228.228	5
228.316	4
229.094	14
241.103	7
242.11	11
243.082	5
254.075	29
255.077	7
286.101	391
287.104	69
288.107	9
