Mass spectrum: Dibenzo[b,d]thiophen-4-yldimethylsilane; GC-EI-TOF; MS; POSITIVE; 70 V
Name: Dibenzo[b,d]thiophen-4-yldimethylsilane
Class: Non-natural compound
Formula: C14H14SSi
Exact mass: 242.058548
SMILES: C[SiH](C)c1cccc2c1sc1ccccc12
InChI: InChI=1S/C14H14SSi/c1-16(2)13-9-5-7-11-10-6-3-4-8-12(10)15-14(11)13/h3-9,16H,1-2H3
Instrument: JMS-T100GCV (JEOL, Akishima, Japan) coupled to Agilent 7890A (Santa Clara, CA, USA) gas chromatograph.
Instrument type: GC-EI-TOF
Ms type: MS
Ion mode: POSITIVE
Ionization: EI
Column name: HP-5 19091J-413 USD364547H (Agilent, Wilmington, USA) with the length 30.0 m, I.D. 0.32 mm, and thickness 0.25 micrometer.
Retention time: 10.53 min
m/z	relative intensity
27.977	8
28.006	14
28.985	12
31.001	8
31.99	9
39.024	8
41.993	3
43.001	173
44.002	12
44.98	5
44.998	6
45.017	2
50.016	4
51.024	10
52.986	20
55.001	4
57.017	5
58.025	35
59.032	18
60.026	2
60.958	3
62.017	4
63.024	14
65.04	4
67.001	4
68.981	10
74.016	8
74.974	7
75.024	19
76.031	8
76.986	9
77.04	10
79.003	2
81.989	3
86.017	4
87.025	9
88.031	4
89.04	11
91.002	2
91.055	7
92.495	2
92.982	3
98.017	5
99.025	9
100.031	3
100.986	3
101.04	9
102.048	4
103.002	4
105.007	2
105.503	14
106.005	8
106.509	9
107.009	2
111.025	2
113.04	10
113.518	38
114.019	8
114.517	3
115.056	17
120.526	15
121.029	20
121.529	5
122.026	3
125.04	21
126.047	12
127.055	7
128.063	3
129.017	5
134.022	2
137.041	8
138.048	14
139.056	73
140.061	10
141.016	3
141.07	6
145.013	2
149.041	7
150.048	58
151.055	78
151.162	1
152.063	81
153.018	5
153.069	16
154.072	2
155.032	3
158.021	6
160.99	5
162.047	3
163.056	19
164.063	15
165.071	84
166.024	3
166.076	18
167.032	5
167.085	8
169.015	2
171.029	10
175.004	2
177.017	2
178.079	3
179.032	4
179.084	2
180.04	5
181.048	17
182.022	12
183.029	19
184.037	110
184.989	8
185.04	17
186.033	5
186.999	2
191.034	3
193.048	5
195.062	10
196.036	4
197.044	60
198.049	12
199.044	3
201.02	12
202.021	2
208.989	3
209.06	1
209.997	13
211.005	74
211.126	1
212.009	23
213.007	9
214.012	2
223.005	33
224.01	14
225.02	71
225.136	1
225.296	2
226.024	21
227.035	999
227.779	3
228.038	200
228.809	2
229.033	90
229.265	3
230.035	15
231.031	3
239.035	5
241.051	55
242.059	404
243.061	88
244.057	38
245.058	6
