Mass spectrum: Amlodipine; LC-ESI-QQ; MS2; ESI; POSITIVE; CID; CE 20 V; [M+H]+
Name: Amlodipine
Class: Non-natural product
Formula: C20H25ClN2O5
Exact mass: 408.145193
SMILES: CCOC(=O)C1=C(NC(=C(C1C2=CC=CC=C2Cl)C(=O)OC)C)COCCN
InChI: InChI=1S/C20H25ClN2O5/c1-4-28-20(25)18-15(11-27-10-9-22)23-12(2)16(19(24)26-3)17(18)13-7-5-6-8-14(13)21/h5-8,17,23H,4,9-11,22H2,1-3H3
Instrument: LCMS-8040 coupled to Nexera XR (Shimadzu, Kyoto, Japan).
Instrument type: LC-ESI-QQ
Ms type: MS2
Ion mode: POSITIVE
Collision energy: 20 V
Fragmentation mode: CID
Ionization: ESI
Column name: InertSustain C18 ID 2.1 microm, 2.1 x 100 mm (GL Science, Tokyo, Japan).
Retention time: 6.176 min
Precursor m/z: 409.15247
Precursor type: [M+H]+
m/z	relative intensity
44.4	24
164.9	12
170.2	16
185.3	14
202.1	16
206.0	166
208.3	33
213.1	10
220.2	95
230.0	19
238.1	999
248.2	31
294.2	507
295.3	12
303.2	20
320.3	12
334.1	25
360.2	10
377.2	110
