Mass spectrum: 5-(4-{[2-(tetradecanoylamino)ethyl]amino}-4-oxobutanamido)-N,N-dimethylpentan-1-amine N-oxide; ESI-QTOF; MS2; ESI; [M-H]-; CE 30 V
Name: 5-(4-{[2-(tetradecanoylamino)ethyl]amino}-4-oxobutanamido)-N,N-dimethylpentan-1-amine N-oxide
Name: AAO 13-2-2-5
Class: Non-natural product
Formula: C27H54N4O4
Exact mass: 498.41449
SMILES: O=C(NCCNC(=O)CCCCCCCCCCCCC)CCC(=O)NCCCCC[N+]([O-])(C)C
InChI: InChI=1S/C27H54N4O4/c1-4-5-6-7-8-9-10-11-12-13-15-18-25(32)29-22-23-30-27(34)20-19-26(33)28-21-16-14-17-24-31(2,3)35/h4-24H2,1-3H3,(H,28,33)(H,29,32)(H,30,34)
Instrument: X500R QTOF (AB Sciex LLC, MA, USA)
Instrument type: ESI-QTOF
Ms type: MS2
Ion mode: NEGATIVE
Collision energy: 30 V
Fragmentation mode: CID
Ionization: ESI
Precursor m/z: 497.407213 
Precursor type: [M-H]-
m/z	relative intensity
98.02461	51
165.10321	3
166.08713	37
208.14534	5
226.15584	23
269.25947	213
350.28098	8
351.26498	166
368.29145	18
418.34345	7
436.35385	999
465.38037	45
482.38300	17
