Mass spectrum: Clobazam; LC-ESI-QQ; MS; ESI; POSITIVE
Name: Clobazam
Class: Non-natural product
Formula: C16H13ClN2O2
Exact mass: 300.06655
SMILES: CN1C(=O)CC(=O)N(C2=C1C=CC(=C2)Cl)C3=CC=CC=C3
InChI: InChI=1S/C16H13ClN2O2/c1-18-13-8-7-11(17)9-14(13)19(16(21)10-15(18)20)12-5-3-2-4-6-12/h2-9H,10H2,1H3
Instrument: LCMS-8040 coupled to Nexera XR (Shimadzu, Kyoto, Japan).
Instrument type: LC-ESI-QQ
Ms type: MS
Ion mode: POSITIVE
Ionization: ESI
Column name: InertSustain C18 ID 2.1 microm, 2.1 x 100 mm (GL Science, Tokyo, Japan).
Retention time: 8.818 min
m/z	relative intensity
259	25
301	999
302	171
303	381
304	60
318	246
319	46
320	89
321	13
323	32
333	12
339	24
341	13
