Mass spectrum: Cloxazolam; LC-ESI-QQ; MS2; ESI; NEGATIVE; CE 30 V; [M-H]-
Name: Cloxazolam
Class: Non-natural product
Formula: C17H14Cl2N2O2
Exact mass: 348.04323
SMILES: C1COC2(N1CC(=O)NC3=C2C=C(C=C3)Cl)C4=CC=CC=C4Cl
InChI: InChI=1S/C17H14Cl2N2O2/c18-11-5-6-15-13(9-11)17(12-3-1-2-4-14(12)19)21(7-8-23-17)10-16(22)20-15/h1-6,9H,7-8,10H2,(H,20,22)
Instrument: LCMS-8040 coupled to Nexera XR (Shimadzu, Kyoto, Japan).
Instrument type: LC-ESI-QQ
Ms type: MS2
Ion mode: NEGATIVE
Collision energy: 30 V
Ionization: ESI
Column name: InertSustain C18 ID 2.1 microm, 2.1 x 100 mm (GL Science, Tokyo, Japan).
Retention time: 9.919 min
Precursor m/z: 347.03540
Precursor type: [M-H]-
m/z	relative intensity
35	296
42	325
45	48
66	185
116	379
128	257
136	194
152	633
159	96
178	48
206	48
224	97
238	999
250	97
251	291
253	508
263	97
265	194
266	97
267	194
275	48
278	97
281	233
