Mass spectrum: Azoxystrobin; LC-ESI-QTOF; MS; POSITIVE
Name: Azoxystrobin
Class: Non-natural product
Formula: C22H17N3O5
Exact mass: 403.116821
SMILES: CO/C=C(\C1=CC=CC=C1OC2=NC=NC(=C2)OC3=CC=CC=C3C#N)/C(=O)OC
InChI: InChI=1S/C22H17N3O5/c1-27-13-17(22(26)28-2)16-8-4-6-10-19(16)30-21-11-20(24-14-25-21)29-18-9-5-3-7-15(18)12-23/h3-11,13-14H,1-2H3/b17-13+
Instrument: X500R QTOF (AB Sciex LLC, MA, USA) coupled to ExionLC AD (AB Sciex LLC, MA, USA).
Instrument type: LC-ESI-QTOF
Ms type: MS
Ion mode: POSITIVE
Ionization: ESI
Column name: TSKgel ODS-100S 5 um, 2.1 mm Ã— 250 mm, TOSOH
Retention time: 14.1 min
m/z	relative intensity
344.1033	13
372.0979	578
373.1014	153
374.104	21
404.1238	999
405.1275	284
406.1303	46
