Mass spectrum: Chlordiazepoxide; LC-ESI-QQ; MS2; ESI; NEGATIVE; CE 40 V; [M-H]-
Name: Chlordiazepoxide
Class: Non-natural product
Formula: C16H14ClN3O
Exact mass: 299.08252
SMILES: CN=C1CN(C(=C2C=C(C=CC2=N1)Cl)C3=CC=CC=C3)O
InChI: InChI=1S/C16H14ClN3O/c1-18-15-10-20(21)16(11-5-3-2-4-6-11)13-9-12(17)7-8-14(13)19-15/h2-9,21H,10H2,1H3
Instrument: LCMS-8040 coupled to Nexera XR (Shimadzu, Kyoto, Japan).
Instrument type: LC-ESI-QQ
Ms type: MS2
Ion mode: NEGATIVE
Collision energy: 40 V
Ionization: ESI
Column name: InertSustain C18 ID 2.1 microm, 2.1 x 100 mm (GL Science, Tokyo, Japan).
Retention time: 9.393 min
Precursor m/z: 298.07525
Precursor type: [M-H]-
m/z	relative intensity
35	370
55	56
129	112
145	169
152	56
166	112
205	225
217	540
224	56
226	266
238	884
251	601
253	999
297	151
