Mass spectrum: Azelnidipine; LC-ESI-QQ; MS; ESI; NEGATIVE
Name: Azelnidipine
Class: Non-natural product
Formula: C33H34N4O6
Exact mass: 582.24782
SMILES: CC1=C(C(C(=C(N1)N)C(=O)OC2CN(C2)C(C3=CC=CC=C3)C4=CC=CC=C4)C5=CC(=CC=C5)[N+](=O)[O-])C(=O)OC(C)C
InChI: InChI=1S/C33H34N4O6/c1-20(2)42-32(38)27-21(3)35-31(34)29(28(27)24-15-10-16-25(17-24)37(40)41)33(39)43-26-18-36(19-26)30(22-11-6-4-7-12-22)23-13-8-5-9-14-23/h4-17,20,26,28,30,35H,18-19,34H2,1-3H3
Instrument: LCMS-8040 coupled to Nexera XR (Shimadzu, Kyoto, Japan).
Instrument type: LC-ESI-QQ
Ms type: MS
Ion mode: NEGATIVE
Ionization: ESI
Column name: InertSustain C18 ID 2.1 microm, 2.1 x 100 mm (GL Science, Tokyo, Japan).
Retention time: 11.165 min
m/z	relative intensity
293.2	34
325.2	48
342.1	21
581.3	999
582.3	364
583.3	86
584.3	12
617.3	121
618.3	60
619.3	53
620.3	19
627.3	31
628.3	17
644.3	71
645.3	20
671.4	28
