Mass spectrum: Talipexole; LC-ESI-QQ; MS2; ESI; POSITIVE; CID; CE 10 V; [M+H]+
Name: Talipexole
Class: Non-natural product
Formula: C10H15N3S
Exact mass: 209.098656
SMILES: C=CCN1CCC2=C(CC1)SC(=N2)N
InChI: InChI=1S/C10H15N3S/c1-2-5-13-6-3-8-9(4-7-13)14-10(11)12-8/h2H,1,3-7H2,(H2,11,12)
Instrument: LCMS-8040 coupled to Nexera XR (Shimadzu, Kyoto, Japan).
Instrument type: LC-ESI-QQ
Ms type: MS2
Ion mode: POSITIVE
Collision energy: 10 V
Fragmentation mode: CID
Ionization: ESI
Column name: InertSustain C18 ID 2.1 microm, 2.1 x 100 mm (GL Science, Tokyo, Japan).
Retention time: 4.719 min
Precursor m/z: 210.105933
Precursor type: [M+H]+
m/z	relative intensity
84.3	99
127.2	16
139.2	11
141.2	23
142.1	17
153.2	34
168.2	32
210.2	999
