Mass spectrum: (3aR,6R,6aR)-3a-hydroxy-3,3,6-trimethyltetrahydro-1H-cyclopenta[c]furan-1,4(3H)-dione; GC-EI-TOF; MS; POSITIVE; 70 V
Name: (3aR,6R,6aR)-3a-hydroxy-3,3,6-trimethyltetrahydro-1H-cyclopenta[c]furan-1,4(3H)-dione
Class: Non-natural compound
Formula: C10H14O4
Exact mass: 198.089209
SMILES: CC1(C)OC(=O)[C@@H]2[C@H](C)CC(=O)[C@@]21O
InChI: InChI=1S/C10H14O4/c1-5-4-6(11)10(13)7(5)8(12)14-9(10,2)3/h5,7,13H,4H2,1-3H3/t5-,7+,10-/m1/s1
Instrument: JMS-T100GCV (JEOL, Akishima, Japan) coupled to Agilent 7890A (Santa Clara, CA, USA) gas chromatograph.
Instrument type: GC-EI-TOF
Ms type: MS
Ion mode: POSITIVE
Ionization: EI
Column name: HP-5 19091J-413 USD364547H (Agilent, Wilmington, USA) with the length 30.0 m, I.D. 0.32 mm, and thickness 0.25 micrometer.
Retention time: 8.00 min
m/z	relative intensity
26.016	7
27.023	103
28.006	4
28.031	15
29.003	23
29.039	64
31.018	32
38.016	12
39.024	264
39.111	1
40.031	53
41.003	6
41.039	399
42.011	98
42.047	136
43.018	509
43.054	28
43.144	1
43.304	2
43.343	2
44.023	15
44.998	5
45.034	12
50.016	8
51.024	25
52.031	12
53.003	13
53.039	47
54.046	11
55.018	45
55.055	68
56.026	16
56.062	156
57.034	13
57.066	7
58.042	5
59.049	228
60.053	7
63.024	6
65.039	24
66.047	16
67.019	7
67.055	27
68.026	42
68.06	3
68.998	31
69.034	999
69.443	3
69.721	2
70.005	14
70.041	315
70.388	1
71.013	8
71.047	23
72.057	12
77.039	28
78.046	5
79.055	25
80.059	3
81.034	6
81.071	8
82.042	10
83.05	123
84.021	3
84.057	255
85.029	30
85.062	17
86.035	3
87.008	7
87.044	5
91.055	16
93.071	10
94.041	55
95.049	18
96.056	3
97.029	154
97.065	91
98.033	10
98.069	6
99.04	2
100.052	24
101.059	6
109.065	9
110.037	7
110.072	3
111.044	74
111.081	12
111.182	2
112.052	866
112.573	2
113.024	46
113.056	75
113.29	1
114.058	6
121.066	3
123.044	3
127.039	5
128.047	7
129.055	54
130.061	8
137.06	18
138.066	3
139.076	6
140.047	15
141.053	3
152.083	2
155.071	15
165.055	4
170.094	41
171.098	4
180.079	6
183.066	7
198.09	9
