Mass spectrum: Temazepam; LC-ESI-QQ; MS; ESI; POSITIVE
Name: Temazepam
Class: Non-natural product
Formula: C16H13ClN2O2
Exact mass: 300.06655
SMILES: CN1C2=C(C=C(C=C2)Cl)C(=NC(C1=O)O)C3=CC=CC=C3
InChI: InChI=1S/C16H13ClN2O2/c1-19-13-8-7-11(17)9-12(13)14(18-15(20)16(19)21)10-5-3-2-4-6-10/h2-9,15,20H,1H3
Instrument: LCMS-8040 coupled to Nexera XR (Shimadzu, Kyoto, Japan).
Instrument type: LC-ESI-QQ
Ms type: MS
Ion mode: POSITIVE
Ionization: ESI
Column name: InertSustain C18 ID 2.1 microm, 2.1 x 100 mm (GL Science, Tokyo, Japan).
Retention time: 9.147 min
m/z	relative intensity
102.1	10
223.2	11
230.4	17
255.3	14
301.3	999
302.2	205
303.2	390
304.3	67
307.2	15
323.2	74
324.3	15
325.2	23
339.2	39
341.2	18
