Mass spectrum: Amlodipine; LC-ESI-QQ; MS2; ESI; POSITIVE; CID; CE 40 V; [M+H]+
Name: Amlodipine
Class: Non-natural product
Formula: C20H25ClN2O5
Exact mass: 408.145193
SMILES: CCOC(=O)C1=C(NC(=C(C1C2=CC=CC=C2Cl)C(=O)OC)C)COCCN
InChI: InChI=1S/C20H25ClN2O5/c1-4-28-20(25)18-15(11-27-10-9-22)23-12(2)16(19(24)26-3)17(18)13-7-5-6-8-14(13)21/h5-8,17,23H,4,9-11,22H2,1-3H3
Instrument: LCMS-8040 coupled to Nexera XR (Shimadzu, Kyoto, Japan).
Instrument type: LC-ESI-QQ
Ms type: MS2
Ion mode: POSITIVE
Collision energy: 40 V
Fragmentation mode: CID
Ionization: ESI
Column name: InertSustain C18 ID 2.1 microm, 2.1 x 100 mm (GL Science, Tokyo, Japan).
Retention time: 6.176 min
Precursor m/z: 409.15247
Precursor type: [M+H]+
m/z	relative intensity
18.7	24
42.1	129
44.4	768
55.3	47
56.3	95
59.3	47
72.3	95
84.2	47
92.3	24
98.1	24
102.2	47
115.2	173
116.2	47
120.2	38
124.1	47
125.4	24
128.1	191
129.3	75
130.2	24
132.1	68
133.2	47
137.1	726
138.2	58
139.1	71
140.1	95
142.1	740
143.2	287
144.2	47
147.4	91
148.1	47
149.1	562
151.1	91
154.1	143
155.1	91
156.0	95
157.1	70
161.2	47
162.0	24
163.1	96
165.1	999
167.1	108
168.2	143
169.0	47
170.2	990
173.3	47
176.2	338
177.1	307
178.1	207
180.0	47
183.3	43
184.2	43
185.1	45
187.1	24
192.2	47
193.1	24
196.3	47
202.3	171
203.1	128
204.1	214
206.0	604
206.9	43
208.1	213
212.4	147
213.2	150
214.0	117
216.0	71
217.5	24
218.9	47
220.2	921
223.4	71
224.2	71
225.1	197
226.3	47
231.0	90
232.1	459
233.2	159
237.0	95
237.8	87
243.8	24
248.0	181
251.1	47
255.9	24
256.8	95
259.9	150
269.7	71
275.3	71
276.1	95
284.2	47
286.1	87
288.2	143
293.5	45
302.7	24
306.1	95
334.0	95
