Mass spectrum: 3-(Dibenzo[b,d]thiophen-4-yldimethylsilyl)-N,N-dimethylaniline; GC-EI-TOF; MS; POSITIVE; 70 V
Name: 3-(Dibenzo[b,d]thiophen-4-yldimethylsilyl)-N,N-dimethylaniline
Class: Non-natural compound
Formula: C22H23NSSi
Exact mass: 361.132043
SMILES: C[Si](C)(c1cccc2c1sc1ccccc12)c1cc(ccc1)N(C)C
InChI: InChI=1S/C22H23NSSi/c1-23(2)16-9-7-10-17(15-16)25(3,4)21-14-8-12-19-18-11-5-6-13-20(18)24-22(19)21/h5-15H,1-4H3
Instrument: JMS-T100GCV (JEOL, Akishima, Japan) coupled to Agilent 7890A (Santa Clara, CA, USA) gas chromatograph.
Instrument type: GC-EI-TOF
Ms type: MS
Ion mode: POSITIVE
Ionization: EI
Column name: HP-5 19091J-413 USD364547H (Agilent, Wilmington, USA) with the length 30.0 m, I.D. 0.32 mm, and thickness 0.25 micrometer.
Retention time: 13.46 min
m/z	relative intensity
28.006	11
28.985	4
31.99	6
39.024	4
42.035	18
43.001	38
44	3
44.05	8
45.016	4
51.024	4
52.985	8
55.001	3
57.017	3
58.025	35
59.032	14
60.026	1
63.024	4
65.04	5
67.001	3
69.017	3
72.028	3
73.048	4
76.033	4
77.04	18
78.047	10
79.002	3
79.053	4
83.032	5
84.029	2
89.04	4
90.044	3
91.056	23
92.059	3
93.017	9
93.064	1
95.032	3
103.002	13
103.056	3
104.006	3
104.053	12
105.017	12
105.061	8
106.019	3
107.032	5
113.041	3
115.055	5
117.018	4
117.064	4
118.02	2
118.067	19
119.033	21
119.074	10
120.031	8
120.082	38
121.047	5
121.089	7
125.041	4
131.033	2
132.028	14
133.045	11
133.09	6
134.045	9
134.098	34
135.063	5
135.103	6
138.049	2
139.057	17
140.062	3
143.015	3
143.518	5
144.024	4
145.032	2
146.044	12
147.05	6
148.059	23
149.064	8
149.558	3
150.049	15
150.526	8
151.056	31
151.532	5
152.064	18
153.071	7
155.046	1
155.557	3
156.522	3
157.025	3
157.528	3
158.031	4
158.539	2
160.06	4
161.066	2
162.075	27
163.078	11
163.528	3
164.065	8
164.536	26
165.072	37
165.541	9
166.076	7
171.033	6
171.544	24
172.046	15
172.551	83
173.055	88
173.555	27
174.054	11
174.555	2
176.089	4
177.095	2
178.106	13
179.098	2
179.559	6
180.06	5
180.567	35
181.067	12
181.567	4
182.023	3
183.029	3
184.038	16
184.991	3
185.041	3
189.072	4
191.02	1
193.049	2
195.064	7
196.039	3
197.044	142
198.047	21
199.042	7
200.061	3
201.022	2
201.07	2
202.079	3
207.034	10
208.036	5
209.035	2
209.998	6
211.006	47
212.008	10
213.01	6
213.072	3
215.087	3
221.046	4
223.006	15
224.011	8
225.02	31
226.024	8
226.08	15
227.034	12
228.039	3
228.093	2
229.042	2
235.005	2
237.02	3
238.028	2
239.036	6
239.087	10
240.09	4
241.052	41
242.055	9
243.051	5
245.045	3
251.035	3
253.039	2
254.097	3
255.064	5
256.064	2
258.053	11
259.058	6
260.065	4
261.02	3
265.047	2
267.063	3
268.069	3
269.076	4
270.073	2
271.06	18
272.063	6
273.065	3
274.028	2
275.035	5
281.054	4
282.067	3
283.065	1
284.016	2
285.021	4
286.029	11
287.036	29
288.038	9
289.042	4
296.091	2
298.028	2
298.102	2
299.034	7
300.038	6
301.049	23
302.102	27
302.235	1
303.11	44
304.112	10
305.109	3
312.033	2
313.042	2
314.047	8
315.053	4
316.062	14
317.071	6
318.069	2
328.063	7
329.067	3
330.078	65
331.081	22
332.078	8
333.081	2
344.093	9
345.099	5
346.109	541
347.111	158
348.108	61
349.11	13
350.108	2
360.125	92
361.132	999
361.812	2
362.135	295
362.733	2
363.132	111
364.133	23
365.131	4
