Mass spectrum: Zonisamide; LC-ESI-QQ; MS2; ESI; NEGATIVE; CID; CE 30 V; [M-H]-
Name: Zonisamide
Class: Non-natural product
Formula: C8H8N2O3S
Exact mass: 212.025556
SMILES: C1=CC=C2C(=C1)C(=NO2)CS(=O)(=O)N
InChI: InChI=1S/C8H8N2O3S/c9-14(11,12)5-7-6-3-1-2-4-8(6)13-10-7/h1-4H,5H2,(H2,9,11,12)
Instrument: LCMS-8040 coupled to Nexera XR (Shimadzu, Kyoto, Japan).
Instrument type: LC-ESI-QQ
Ms type: MS2
Ion mode: NEGATIVE
Collision energy: 30 V
Fragmentation mode: CID
Ionization: ESI
Column name: InertSustain C18 ID 2.1 microm, 2.1 x 100 mm (GL Science, Tokyo, Japan).
Retention time: 5.965 min
Precursor m/z: 211.01827
Precursor type: [M-H]-
m/z	relative intensity
26.1	13
41.1	12
42.1	54
62.1	31
64.0	78
65.0	19
79.0	207
80.1	15
90.1	141
91.1	66
93.1	288
107.0	80
117.1	402
118.0	999
119.0	819
147.1	16
210.6	16
