Mass spectrum: Carpipramine; LC-ESI-QQ; MS; ESI; POSITIVE
Name: Carpipramine
Class: Non-natural product
Formula: C28H38N4O
Exact mass: 446.304545
SMILES: C1CCN(CC1)C2(CCN(CC2)CCCN3C4=CC=CC=C4CCC5=CC=CC=C53)C(=O)N
InChI: InChI=1S/C28H38N4O/c29-27(33)28(31-18-6-1-7-19-31)15-21-30(22-16-28)17-8-20-32-25-11-4-2-9-23(25)13-14-24-10-3-5-12-26(24)32/h2-5,9-12H,1,6-8,13-22H2,(H2,29,33)
Instrument: LCMS-8040 coupled to Nexera XR (Shimadzu, Kyoto, Japan).
Instrument type: LC-ESI-QQ
Ms type: MS
Ion mode: POSITIVE
Ionization: ESI
Column name: InertSustain C18 ID 2.1 microm, 2.1 x 100 mm (GL Science, Tokyo, Japan).
Retention time: 9.788 min
m/z	relative intensity
114.2	11
225.1	15
250.2	13
333.3	16
355.3	10
447.5	999
448.4	163
449.3	28
