Mass spectrum: Medazepam; LC-ESI-QQ; MS2; ESI; POSITIVE; CID; CE 30 V; [M+H]+
Name: Medazepam
Class: Non-natural product
Formula: C16H15ClN2
Exact mass: 270.092368
SMILES: CN1CCN=C(C2=C1C=CC(=C2)Cl)C3=CC=CC=C3
InChI: InChI=1S/C16H15ClN2/c1-19-10-9-18-16(12-5-3-2-4-6-12)14-11-13(17)7-8-15(14)19/h2-8,11H,9-10H2,1H3
Instrument: LCMS-8040 coupled to Nexera XR (Shimadzu, Kyoto, Japan).
Instrument type: LC-ESI-QQ
Ms type: MS2
Ion mode: POSITIVE
Ionization: ESI
Collision energy: 30 V
Fragmentation mode: CID
Column name: InertSustain C18 ID 2.1 microm, 2.1 x 100 mm (GL Science, Tokyo, Japan).
Retention time: 10.841 min
Precursor m/z: 271.099645
Precursor type: [M+H]+
m/z	relative intensity
30.3	73
42.3	26
44.3	120
79.2	16
91.2	999
105.2	13
106.2	19
117.2	72
125.0	17
130.2	11
131.2	51
152.1	37
154.2	11
164.2	30
165.1	225
166.1	26
178.1	13
179.1	32
180.1	175
193.2	98
194.1	23
195.2	13
204.1	11
206.2	91
207.2	507
214.0	16
218.1	45
219.2	37
227.1	50
228.1	131
230.1	96
242.2	87
243.2	11
254.2	72
255.2	18
271.2	177
