Mass spectrum: Prosulfuron; LC-ESI-QTOF; MS2; [M+H]+; CID; CE 40V
Name: Prosulfuron
Class: Non-natural product
Formula: C15H16F3N5O4S
Exact mass: 419.08751
SMILES: CC1=NC(=NC(=N1)OC)NC(=O)NS(=O)(=O)C2=CC=CC=C2CCC(F)(F)F
InChI: InChI=1S/C15H16F3N5O4S/c1-9-19-12(22-14(20-9)27-2)21-13(24)23-28(25,26)11-6-4-3-5-10(11)7-8-15(16,17)18/h3-6H,7-8H2,1-2H3,(H2,19,20,21,22,23,24)
Instrument: X500R QTOF (AB Sciex LLC, MA, USA) coupled to ExionLC AD (AB Sciex LLC, MA, USA).
Instrument type: LC-ESI-QTOF
Ms type: MS2
Ion mode: POSITIVE
Collision energy: 40 V
Fragmentation mode: CID
Ionization: ESI
Column name: AQ-C18HP 3 microm, 2.1 mm Ã— 150 mm (GL Science, Tokyo, Japan).
Retention time: 32.6 min
Precursor m/z: 420.094787
Precursor type: [M+H]+
m/z	relative intensity
56.0492	51
57.0449	28
83.0239	45
85.0393	28
100.0506	43
109.0448	290
141.0773	999
167.0563	637
173.007	141
