Mass spectrum: (Z)-Dimethomorph; LC-ESI-QTOF; MS2; [M+H]+; CID; CE 60V
Name: (Z)-Dimethomorph
Class: Non-natural product
Formula: C21H22ClNO4
Exact mass: 387.123736
SMILES: COC1=C(C=C(C=C1)/C(=C\C(=O)N2CCOCC2)/C3=CC=C(C=C3)Cl)OC
InChI: InChI=1S/C21H22ClNO4/c1-25-19-8-5-16(13-20(19)26-2)18(15-3-6-17(22)7-4-15)14-21(24)23-9-11-27-12-10-23/h3-8,13-14H,9-12H2,1-2H3/b18-14-
Instrument: X500R QTOF (AB Sciex LLC, MA, USA) coupled to ExionLC AD (AB Sciex LLC, MA, USA).
Instrument type: LC-ESI-QTOF
Ms type: MS2
Ion mode: POSITIVE
Collision energy: 60 V
Fragmentation mode: CID
Ionization: ESI
Column name: TSKgel ODS-100S 5 um, 2.1 mm Ã— 250 mm, TOSOH
Retention time: 14.7 min
Precursor m/z: 388.131013
Precursor type: [M+H]+
m/z	relative intensity
42.0336	41
70.0286	124
77.0385	92
79.054	63
94.0412	62
109.0647	55
110.9994	74
121.0284	44
122.0361	154
125.0151	253
129.0098	27
137.0597	185
138.9951	469
152.0619	214
165.0552	999
166.0773	67
167.0855	159
176.0623	42
177.0693	88
178.0773	109
179.0851	39
180.0568	42
187.0307	92
194.0726	62
195.0801	202
199.0308	229
212.0383	81
215.0257	356
223.0752	231
227.0257	452
228.033	93
229.0411	87
235.0748	88
238.0987	149
241.0414	77
242.049	611
243.0206	416
257.0363	117
258.044	286
273.0675	85
