Mass spectrum: (E)-1-bromo-2-(1,1,1,2,2,5,5,6,6,6-decafluorohexen-3-yl)benzene; GC-EI-TOF; MS; POSITIVE; 70 V
Name: (E)-1-bromo-2-(1,1,1,2,2,5,5,6,6,6-decafluorohexen-3-yl)benzene
Class: Non-natural compound
Formula: C12H5BrF10
Exact mass: 417.941487
SMILES: Brc1ccccc1\C(=C/C(F)(F)C(F)(F)F)C(F)(F)C(F)(F)F
InChI: InChI=1S/C12H5BrF10/c13-8-4-2-1-3-6(8)7(10(16,17)12(21,22)23)5-9(14,15)11(18,19)20/h1-5H/b7-5+
Instrument: JMS-T100GCV (JEOL, Akishima, Japan) coupled to Agilent 7890A (Santa Clara, CA, USA) gas chromatograph.
Instrument type: GC-EI-TOF
Ms type: MS
Ion mode: POSITIVE
Ionization: EI
Column name: DB-5MS 122-5532 USA360633H (Agilent, Wilmington, USA) with the length 30.0 m, I.D. 0.25 mm, and thickness 0.25 micrometer.
Retention time: 6.22 min
m/z	relative intensity
28.006	3
30.999	5
38.016	4
39.024	13
50.016	31
51.024	23
57.015	7
61.008	5
62.016	15
63.024	18
68.996	93
69.058	1
73.008	3
74.016	44
75.023	57
75.519	15
76.03	13
77.038	5
80.007	4
81.015	14
85.01	4
86.016	9
87.023	8
88.017	4
91.018	4
92.007	3
93.013	4
94.022	3
95.03	3
98.016	10
99.007	22
100.014	16
101.039	45
102.043	4
104.007	4
105.015	12
106.021	7
107.03	3
110.016	4
111.016	4
112.013	10
113.004	4
117.008	2
118.995	10
120.038	11
123.006	10
124.013	12
124.477	4
125.021	22
125.476	4
126.028	6
129.014	2
129.974	2
131.03	23
132.038	20
133.042	2
137.012	3
138.029	8
143.014	8
144.025	2
145.027	21
149.021	18
149.475	3
150.029	46
150.474	3
151.037	999
151.599	3
152.04	95
152.525	2
153.043	5
153.456	1
154.95	2
155.009	2
156.019	4
156.948	2
161.021	9
162.028	9
163.031	4
168.019	3
169.027	124
170.035	95
171.039	9
174.01	3
174.474	3
175.014	2
175.473	2
179.958	13
180.019	8
181.027	17
181.956	13
182.035	107
183.039	11
187.018	9
188.025	3
189.033	2
193.02	3
199.018	5
200.026	138
201.033	194
202.037	19
204.947	3
205.008	2
206.945	3
210.956	3
211.018	4
212.954	3
213.033	3
218.016	6
219.024	60
220.033	213
221.037	23
228.947	48
229.951	5
230.945	47
231.024	19
231.949	5
232.03	6
248.953	56
250.022	73
250.951	55
251.03	68
251.955	5
252.034	7
259.946	19
260.95	2
261.944	18
262.948	2
269.021	25
270.029	166
271.032	19
278.944	43
279.946	6
280.942	43
281.946	5
298.951	223
299.955	23
300.949	217
301.706	1
301.952	23
302.956	1
309.943	6
311.942	6
319.018	5
320.025	100
321.029	13
328.941	4
330.939	4
339.027	8
340.031	4
348.951	7
350.949	7
378.937	25
379.94	3
380.935	25
381.939	3
398.943	2
400.941	2
417.942	723
418.945	93
419.94	709
420.943	90
421.946	5
422.473	1
