Mass spectrum: S-Ethyl 4-(4'-fluorophenyl)benzothioate; GC-EI-TOF; MS; POSITIVE; 70 V
Name: S-Ethyl 4-(4'-fluorophenyl)benzothioate
Class: Non-natural compound
Formula: C15H13FOS
Exact mass: 260.067114
SMILES: Fc1ccc(cc1)c1ccc(cc1)C(=O)SCC
InChI: InChI=1S/C15H13FOS/c1-2-18-15(17)13-5-3-11(4-6-13)12-7-9-14(16)10-8-12/h3-10H,2H2,1H3
Instrument: JMS-T100GCV (JEOL, Akishima, Japan) coupled to Agilent 7890A (Santa Clara, CA, USA) gas chromatograph.
Instrument type: GC-EI-TOF
Ms type: MS
Ion mode: POSITIVE
Ionization: EI
Column name: ZB-1MS 7HM-G011-11 sn:313446 (Agilent, Wilmington, USA) with the length 30.0 m, I.D. 0.32 mm, and thickness 0.25 micrometer.
Retention time: 10.74 min
m/z	relative intensity
27.023	19
28.006	6
28.031	2
29.039	13
31.99	3
34.996	9
39.024	3
44.98	5
50.016	5
51.023	10
57.014	3
58.996	3
61.011	4
62.016	2
63.023	5
70.022	3
74.015	7
75.023	19
75.527	3
76.03	4
81.014	3
85.026	19
85.53	6
87.023	3
94.022	6
95.029	6
98.015	3
99.023	8
99.528	6
100.029	3
101.039	6
107.03	3
116.036	4
120.037	18
121.042	2
123.022	2
125.039	23
126.044	4
131.029	2
133.045	8
144.037	19
145.045	18
146.05	2
149.039	6
150.047	23
151.054	44
152.06	11
157.045	3
159.061	3
168.037	15
169.045	57
169.176	2
170.052	389
170.182	9
170.308	1
170.625	1
170.7	1
171.059	218
171.627	1
171.705	1
172.064	26
173.069	2
198.047	3
199.055	999
199.56	2
199.756	3
200.059	143
200.741	2
201.062	12
201.274	2
202.025	8
203.032	15
204.034	2
260.067	41
261.071	7
262.065	2
