Mass spectrum: 7-Methyl-1-(2,2,3,3,3-pentafluoropropyl)-1,2,3,4-tetrahydronaphtalene; GC-EI-TOF; MS; POSITIVE; 70 V
Name: 7-Methyl-1-(2,2,3,3,3-pentafluoropropyl)-1,2,3,4-tetrahydronaphtalene
Class: Non-natural compound
Formula: C14H15F5
Exact mass: 278.10939
SMILES: FC(F)(F)C(F)(F)C[C@H]1CCCc2ccc(C)cc21
InChI: InChI=1S/C14H15F5/c1-9-5-6-10-3-2-4-11(12(10)7-9)8-13(15,16)14(17,18)19/h5-7,11H,2-4,8H2,1H3/t11-/m1/s1
Instrument: JMS-T100GCV (JEOL, Akishima, Japan) coupled to Agilent 7890A (Santa Clara, CA, USA) gas chromatograph.
Instrument type: GC-EI-TOF
Ms type: MS
Ion mode: POSITIVE
Ionization: EI
Column name: ZB-1MS 7HM-G011-11 sn:313446 (Agilent, Wilmington, USA) with the length 30.0 m, I.D. 0.32 mm, and thickness 0.25 micrometer.
Retention time: 7.74 min
m/z	relative intensity
27.024	16
28.006	13
28.031	3
29.039	5
31.99	5
39.024	29
40.031	3
41.04	16
50.016	6
51.024	24
52.031	6
53.04	17
57.021	2
57.528	7
58.032	3
62.016	3
63.024	18
64.031	15
64.535	4
65.04	23
67.055	4
68.996	16
70.032	6
70.536	32
71.039	35
71.543	28
72.047	14
72.551	13
75.024	5
76.032	7
77.039	35
78.047	12
79.055	10
83.035	2
87.025	2
89.039	10
90.044	2
91.055	63
92.061	7
95.019	2
101.039	3
102.047	10
103.055	17
104.062	6
105.071	98
105.154	1
106.074	8
109.046	2
115.055	110
115.137	1
116.062	37
117.071	64
118.078	143
118.164	2
118.992	3
119.083	14
126.047	3
127.055	33
128.063	125
128.163	2
129.07	124
130.078	105
130.166	1
131.086	51
132.09	4
133.046	4
139.055	5
141.071	33
142.078	17
143.086	52
144.093	25
145.102	999
145.698	3
146.054	9
146.105	110
146.563	2
147.06	4
147.109	6
151.038	3
152.063	3
153.07	3
155.086	3
157.101	3
158.109	2
159.062	3
159.117	7
161.077	6
164.044	3
165.053	3
177.052	3
181.083	20
217.064	6
235.056	5
237.071	4
239.105	3
249.07	3
250.078	33
251.081	4
259.111	14
263.086	64
264.09	8
277.102	16
278.109	280
279.113	38
280.116	3
