Mass spectrum: Mexazolam; LC-ESI-QQ; MS2; ESI; POSITIVE; CID; CE 40 V; [M+H]+
Name: Mexazolam
Class: Non-natural product
Formula: C18H16Cl2N2O2
Exact mass: 362.058876
SMILES: CC1COC2(N1CC(=O)NC3=C2C=C(C=C3)Cl)C4=CC=CC=C4Cl
InChI: InChI=1S/C18H16Cl2N2O2/c1-11-10-24-18(13-4-2-3-5-15(13)20)14-8-12(19)6-7-16(14)21-17(23)9-22(11)18/h2-8,11H,9-10H2,1H3,(H,21,23)
Instrument: LCMS-8040 coupled to Nexera XR (Shimadzu, Kyoto, Japan).
Instrument type: LC-ESI-QQ
Ms type: MS2
Ion mode: POSITIVE
Ionization: ESI
Collision energy: 40 V
Fragmentation mode: CID
Column name: InertSustain C18 ID 2.1 microm, 2.1 x 100 mm (GL Science, Tokyo, Japan).
Retention time: 10.227 min
Precursor m/z: 363.066153
Precursor type: [M+H]+
m/z	relative intensity
30.3	17
31.3	16
41.4	17
42.3	67
56.2	14
59.1	13
70.3	351
88.2	16
105.3	37
113.2	33
117.0	19
125.2	103
126.1	26
133.2	96
136.3	10
138.2	85
140.1	999
150.0	165
158.2	49
165.1	335
166.1	175
168.1	20
178.0	63
179.1	16
193.0	28
205.2	31
206.2	168
207.0	72
214.2	116
227.1	140
228.1	164
235.0	24
238.1	14
241.2	280
242.2	326
248.1	20
252.1	56
261.1	15
270.4	18
275.1	26
276.2	80
277.2	24
305.1	509
