Mass spectrum: Chlordiazepoxide; LC-ESI-QQ; MS2; ESI; POSITIVE; CE 50 V; [M+H]+
Name: Chlordiazepoxide
Class: Non-natural product
Formula: C16H14ClN3O
Exact mass: 299.08252
SMILES: CN=C1CN(C(=C2C=C(C=CC2=N1)Cl)C3=CC=CC=C3)O
InChI: InChI=1S/C16H14ClN3O/c1-18-15-10-20(21)16(11-5-3-2-4-6-11)13-9-12(17)7-8-14(13)19-15/h2-9,21H,10H2,1H3
Instrument: LCMS-8040 coupled to Nexera XR (Shimadzu, Kyoto, Japan).
Instrument type: LC-ESI-QQ
Ms type: MS2
Ion mode: POSITIVE
Collision energy: 50 V
Ionization: ESI
Column name: InertSustain C18 ID 2.1 microm, 2.1 x 100 mm (GL Science, Tokyo, Japan).
Retention time: 9.393 min
Precursor m/z: 300.08981
Precursor type: [M+H]+
m/z	relative intensity
30	19
51	18
57	838
65	14
77	157
89	670
90	57
93	13
95	24
100	36
102	24
104	74
105	27
111	85
117	38
124	286
129	19
136	184
138	45
143	19
150	19
151	11
152	61
163	111
164	25
165	999
177	13
178	31
179	23
187	19
188	19
189	22
190	154
191	183
192	286
193	19
199	15
202	34
203	99
205	177
206	66
211	19
213	19
214	19
215	25
216	103
217	70
218	154
219	40
220	27
224	57
227	387
230	26
231	19
232	58
238	39
240	56
241	84
245	19
246	116
247	62
252	120
253	41
254	19
266	42
267	75
277	14
282	29
283	11
