Mass spectrum: Zonisamide; LC-ESI-QQ; MS2; ESI; NEGATIVE; CID; CE 50 V; [M-H]-
Name: Zonisamide
Class: Non-natural product
Formula: C8H8N2O3S
Exact mass: 212.025556
SMILES: C1=CC=C2C(=C1)C(=NO2)CS(=O)(=O)N
InChI: InChI=1S/C8H8N2O3S/c9-14(11,12)5-7-6-3-1-2-4-8(6)13-10-7/h1-4H,5H2,(H2,9,11,12)
Instrument: LCMS-8040 coupled to Nexera XR (Shimadzu, Kyoto, Japan).
Instrument type: LC-ESI-QQ
Ms type: MS2
Ion mode: NEGATIVE
Collision energy: 50 V
Fragmentation mode: CID
Ionization: ESI
Column name: InertSustain C18 ID 2.1 microm, 2.1 x 100 mm (GL Science, Tokyo, Japan).
Retention time: 5.965 min
Precursor m/z: 211.01827
Precursor type: [M-H]-
m/z	relative intensity
41.0	68
42.0	47
43.0	25
47.5	17
50.1	88
62.0	308
64.0	999
65.1	142
75.9	26
79.0	663
88.0	17
90.1	118
91.7	20
93.1	144
106.3	17
114.8	17
117.9	141
119.0	148
146.3	17
147.1	25
210.3	26
211.3	19
