Mass spectrum: Olmesartan medoxomil; LC-ESI-QQ; MS2; ESI; POSITIVE; CID; CE 30 V; [M+H]+
Name: Olmesartan medoxomil
Class: Non-natural product
Formula: C29H30N6O6
Exact mass: 558.22266
SMILES: CCCC1=NC(=C(N1CC2=CC=C(C=C2)C3=CC=CC=C3C4=NNN=N4)C(=O)OCC5=C(OC(=O)O5)C)C(C)(C)O
InChI: InChI=1S/C29H30N6O6/c1-5-8-23-30-25(29(3,4)38)24(27(36)39-16-22-17(2)40-28(37)41-22)35(23)15-18-11-13-19(14-12-18)20-9-6-7-10-21(20)26-31-33-34-32-26/h6-7,9-14,38H,5,8,15-16H2,1-4H3,(H,31,32,33,34)
Instrument: LCMS-8040 coupled to Nexera XR (Shimadzu, Kyoto, Japan).
Instrument type: LC-ESI-QQ
Ms type: MS2
Ion mode: POSITIVE
Collision energy: 30 V
Fragmentation mode: CID
Ionization: ESI
Column name: InertSustain C18 ID 2.1 microm, 2.1 x 100 mm (GL Science, Tokyo, Japan).
Retention time: 8.511 min
Precursor m/z: 559.229937
Precursor type: [M+H]+
m/z	relative intensity
177.2	77
178.2	37
179.2	41
180.2	17
190.2	15
191.2	12
192.2	56
195.2	71
207.2	999
233.3	32
235.2	88
247.3	13
275.2	59
325.3	10
383.3	16
