Mass spectrum: Pyriftalid; LC-ESI-QTOF; MS2; [M+H]+; CID; CE 50V
Name: Pyriftalid
Class: Non-natural product
Formula: C15H14N2O4S
Exact mass: 318.067428
SMILES: CC1C2=C(C(=CC=C2)SC3=NC(=CC(=N3)OC)OC)C(=O)O1
InChI: InChI=1S/C15H14N2O4S/c1-8-9-5-4-6-10(13(9)14(18)21-8)22-15-16-11(19-2)7-12(17-15)20-3/h4-8H,1-3H3
Instrument: X500R QTOF (AB Sciex LLC, MA, USA) coupled to ExionLC AD (AB Sciex LLC, MA, USA).
Instrument type: LC-ESI-QTOF
Ms type: MS2
Ion mode: POSITIVE
Collision energy: 50 V
Fragmentation mode: CID
Ionization: ESI
Column name: TSKgel ODS-100S 5 um, 2.1 mm Ã— 250 mm, TOSOH
Retention time: 14.3 min
Precursor m/z: 319.074705
Precursor type: [M+H]+
m/z	relative intensity
44.0492	32
44.9792	34
45.0332	33
68.9971	120
71.0602	154
77.0386	57
79.0541	71
81.0447	89
82.0285	92
83.0236	586
91.0542	226
93.0082	476
100.0391	62
102.0464	196
103.054	121
109.0396	109
118.0413	148
123.0263	235
125.0345	173
134.0184	122
135.0263	271
139.05	999
140.0492	166
141.9959	97
151.0212	358
152.0495	161
157.0606	265
161.0059	269
163.0215	165
174.0374	178
179.0161	745
196.0395	387
230.051	169
241.0432	144
