Mass spectrum: Acibenzolar-S-methyl; LC-ESI-QTOF; MS2; [M+H]+; CID; CE 60 V
Name: Acibenzolar-S-methyl
Class: Non-natural product
Formula: C8H6N2OS2
Exact mass: 209.992155
SMILES: CSC(=O)C1=C2C(=CC=C1)N=NS2
InChI: InChI=1S/C8H6N2OS2/c1-12-8(11)5-3-2-4-6-7(5)13-10-9-6/h2-4H,1H3
Instrument: X500R QTOF (AB Sciex LLC, MA, USA) coupled to ExionLC AD (AB Sciex LLC, MA, USA).
Instrument type: LC-ESI-QTOF
Ms type: MS2
Ion mode: POSITIVE
Collision energy: 60 V
Fragmentation mode: CID
Ionization: ESI
Column name: TSKgel ODS-100S 5 um, 2.1 mm Ã— 250 mm, TOSOH
Retention time: 15.3 min
Precursor m/z: 210.999432
Precursor type: [M+H]+
m/z	relative intensity
39.0227	52
44.9792	98
57.9868	157
63.0227	221
65.0382	80
68.9791	892
69.9869	62
75.0226	60
77.0384	86
81.987	875
92.9791	166
94.995	160
96.0025	387
106.9948	258
108.0025	378
121.0105	233
136.0088	999
