Mass spectrum: Benzofenap; LC-ESI-QTOF; MS2; [M+H]+; CID; CE 40V
Name: Benzofenap
Class: Non-natural product
Formula: C22H20Cl2N2O3
Exact mass: 430.085098
SMILES: CC1=CC=C(C=C1)C(=O)COC2=C(C(=NN2C)C)C(=O)C3=C(C(=C(C=C3)Cl)C)Cl
InChI: InChI=1S/C22H20Cl2N2O3/c1-12-5-7-15(8-6-12)18(27)11-29-22-19(14(3)25-26(22)4)21(28)16-9-10-17(23)13(2)20(16)24/h5-10H,11H2,1-4H3
Instrument: X500R QTOF (AB Sciex LLC, MA, USA) coupled to ExionLC AD (AB Sciex LLC, MA, USA).
Instrument type: LC-ESI-QTOF
Ms type: MS2
Ion mode: POSITIVE
Collision energy: 40 V
Fragmentation mode: CID
Ionization: ESI
Column name: TSKgel ODS-100S 5 um, 2.1 mm Ã— 250 mm, TOSOH
Retention time: 16.0 min
Precursor m/z: 431.092375
Precursor type: [M+H]+
m/z	relative intensity
77.0385	96
79.0542	132
91.0541	78
103.0542	112
105.0695	999
119.049	505
133.0647	253
139.0499	789
157.0609	233
186.9713	245
