Mass spectrum: Lactofen; LC-ESI-QTOF; MS2; [M+H]+; CID; CE 30V
Name: Lactofen
Class: Non-natural product
Formula: C19H15ClF3NO7
Exact mass: 461.048914
SMILES: CCOC(=O)C(C)OC(=O)C1=C(C=CC(=C1)OC2=C(C=C(C=C2)C(F)(F)F)Cl)[N+](=O)[O-]
InChI: InChI=1S/C19H15ClF3NO7/c1-3-29-17(25)10(2)30-18(26)13-9-12(5-6-15(13)24(27)28)31-16-7-4-11(8-14(16)20)19(21,22)23/h4-10H,3H2,1-2H3
Instrument: X500R QTOF (AB Sciex LLC, MA, USA) coupled to ExionLC AD (AB Sciex LLC, MA, USA).
Instrument type: LC-ESI-QTOF
Ms type: MS2
Ion mode: POSITIVE
Collision energy: 30 V
Fragmentation mode: CID
Ionization: ESI
Column name: TSKgel ODS-100S 5 um, 2.1 mm Ã— 250 mm, TOSOH
Retention time: 15.9 min
Precursor m/z: 462.056191
Precursor type: [M+H]+
m/z	relative intensity
178.9871	30
222.9771	436
279.9976	42
300.0037	703
343.9935	999
