Mass spectrum: Pyriftalid; LC-ESI-QTOF; MS2; [M+H]+; CID; CE 60V
Name: Pyriftalid
Class: Non-natural product
Formula: C15H14N2O4S
Exact mass: 318.067428
SMILES: CC1C2=C(C(=CC=C2)SC3=NC(=CC(=N3)OC)OC)C(=O)O1
InChI: InChI=1S/C15H14N2O4S/c1-8-9-5-4-6-10(13(9)14(18)21-8)22-15-16-11(19-2)7-12(17-15)20-3/h4-8H,1-3H3
Instrument: X500R QTOF (AB Sciex LLC, MA, USA) coupled to ExionLC AD (AB Sciex LLC, MA, USA).
Instrument type: LC-ESI-QTOF
Ms type: MS2
Ion mode: POSITIVE
Collision energy: 60 V
Fragmentation mode: CID
Ionization: ESI
Column name: TSKgel ODS-100S 5 um, 2.1 mm Ã— 250 mm, TOSOH
Retention time: 14.3 min
Precursor m/z: 319.074705
Precursor type: [M+H]+
m/z	relative intensity
44.0494	62
44.9792	91
65.0133	52
68.997	223
71.0603	152
77.0385	195
79.0541	184
81.0446	109
82.0286	115
83.0237	850
89.0383	183
90.0463	134
91.0542	409
93.0081	999
94.0159	68
102.0463	505
103.0541	183
109.0105	76
109.0394	90
115.054	90
116.0494	87
118.0411	274
123.0262	279
125.0352	127
133.0106	120
134.0185	245
135.0263	185
139.0502	468
140.0494	391
151.0212	254
152.0494	172
160.0216	139
161.0063	227
168.0445	114
172.0215	88
179.0163	241
196.0392	282
