Mass spectrum: 6-(4-{[2-(dodecanoylamino)ethyl]amino}-4-oxobutanamido)-N,N-dimethylhexan-1-amine N-oxide; ESI-QTOF; MS2; ESI; [M-H]-; CE 60 V
Name: 6-(4-{[2-(dodecanoylamino)ethyl]amino}-4-oxobutanamido)-N,N-dimethylhexan-1-amine N-oxide
Name: AAO 11-2-2-6
Class: Non-natural product
Formula: C26H52N4O4
Exact mass: 484.398840
SMILES: O=C(NCCNC(=O)CCCCCCCCCCC)CCC(=O)NCCCCCC[N+]([O-])(C)C
InChI: InChI=1S/C26H52N4O4/c1-4-5-6-7-8-9-10-11-14-17-24(31)28-21-22-29-26(33)19-18-25(32)27-20-15-12-13-16-23-30(2,3)34/h4-23H2,1-3H3,(H,27,32)(H,28,31)(H,29,33)
Instrument: X500R QTOF (AB Sciex LLC, MA, USA)
Instrument type: ESI-QTOF
Ms type: MS2
Ion mode: NEGATIVE
Collision energy: 60 V
Fragmentation mode: CID
Ionization: ESI
Precursor m/z: 483.391563
Precursor type: [M-H]-
m/z	relative intensity
41.99832	156
70.02952	46
72.04521	15
85.04039	13
97.04039	58
98.02443	977
101.07173	35
112.04000	20
113.07159	61
115.08726	18
122.07190	43
123.05596	49
140.08244	79
141.06650	269
152.10758	288
158.09305	32
162.09186	27
179.11841	148
180.10246	647
181.13404	26
181.15917	47
198.18571	165
209.12892	30
212.20132	155
224.20124	37
239.21221	47
240.17105	41
241.22781	999
