Mass spectrum: Bromazepam; LC-ESI-QQ; MS2; ESI; POSITIVE; CID: CE 40 V; [M+H]+
Name: Bromazepam
Class: Non-natural product
Formula: C14H10BrN3O
Exact mass: 315.00072
SMILES: C1C(=O)NC2=C(C=C(C=C2)Br)C(=N1)C3=CC=CC=N3
InChI: InChI=1S/C14H10BrN3O/c15-9-4-5-11-10(7-9)14(17-8-13(19)18-11)12-3-1-2-6-16-12/h1-7H,8H2,(H,18,19)
Instrument: LCMS-8040 coupled to Nexera XR (Shimadzu, Kyoto, Japan).
Instrument type: LC-ESI-QQ
Ms type: MS2
Ion mode: POSITIVE
Collision energy: 40 V
Fragmentation mode: CID
Ionization: ESI
Column name: InertSustain C18 ID 2.1 microm, 2.1 x 100 mm (GL Science, Tokyo, Japan).
Retention time: 8.299 min
Precursor m/z: 316.00799
Precursor type: [M+H]+
m/z	relative intensity
18.4	19
78.3	42
80.2	135
104.3	81
105.1	118
107.2	12
130.2	53
131.2	64
133.2	15
154.2	51
155.2	20
166.3	29
167.3	14
168.2	14
169.3	29
179.3	23
180.1	29
181.2	253
182.2	999
184.1	131
192.2	83
193.2	34
194.2	18
207.1	93
208.2	424
209.2	259
237.1	30
244.0	19
245.1	61
259.0	187
260.0	297
261.1	95
316.1	14
