Mass spectrum: Quetiapine; LC-ESI-QQ; MS2; ESI; NEGATIVE; CID; CE 30 V; [M-H]-
Name: Quetiapine
Class: Non-natural product
Formula: C21H25N3O2S
Exact mass: 383.166736
SMILES: C1CN(CCN1CCOCCO)C2=NC3=CC=CC=C3SC4=CC=CC=C42
InChI: InChI=1S/C21H25N3O2S/c25-14-16-26-15-13-23-9-11-24(12-10-23)21-17-5-1-3-7-19(17)27-20-8-4-2-6-18(20)22-21/h1-8,25H,9-16H2
Instrument: LCMS-8040 coupled to Nexera XR (Shimadzu, Kyoto, Japan).
Instrument type: LC-ESI-QQ
Ms type: MS2
Ion mode: NEGATIVE
Collision energy: 30 V
Fragmentation mode: CID
Ionization: ESI
Column name: InertSustain C18 ID 2.1 microm, 2.1 x 100 mm (GL Science, Tokyo, Japan).
Retention time: 9.705 min
Precursor m/z: 382.159459
Precursor type: [M-H]-
m/z	relative intensity
56.1	243
59.2	613
61.1	631
68.1	513
118.1	121
133.4	61
149.3	61
160.0	121
163.2	61
209.7	249
219.9	243
223.8	61
225.6	120
226.2	120
233.9	61
235.1	121
236.2	61
237.4	61
248.3	121
251.1	999
382.2	258
