Mass spectrum: S-Ethyl 4-cyanobenzothioate; GC-EI-TOF; MS; POSITIVE; 70 V
Name: S-Ethyl 4-cyanobenzothioate
Class: Non-natural compound
Formula: C10H9NOS
Exact mass: 191.040481
SMILES: O=C(SCC)c1ccc(cc1)C#N
InChI: InChI=1S/C10H9NOS/c1-2-13-10(12)9-5-3-8(7-11)4-6-9/h3-6H,2H2,1H3
Instrument: JMS-T100GCV (JEOL, Akishima, Japan) coupled to Agilent 7890A (Santa Clara, CA, USA) gas chromatograph.
Instrument type: GC-EI-TOF
Ms type: MS
Ion mode: POSITIVE
Ionization: EI
Column name: ZB-1MS 7HM-G011-11 sn:313446 (Agilent, Wilmington, USA) with the length 30.0 m, I.D. 0.32 mm, and thickness 0.25 micrometer.
Retention time: 8.91 min
m/z	relative intensity
26.016	5
27.024	43
28.007	6
28.031	3
29.039	18
31.99	4
34.996	12
38.016	4
39.024	6
44.98	14
45.988	5
50.016	34
51.024	48
52.02	8
57.988	7
58.996	11
60.003	4
61.011	15
62.016	4
63.023	5
64.019	3
68.98	4
74.016	13
75.023	70
76.02	49
77.024	3
90.035	4
99.011	5
100.019	4
101.027	7
102.034	341
103.038	32
104.04	2
130.029	999
130.593	3
131.032	97
131.412	1
132.035	6
134.007	6
146.007	3
163.009	2
191.04	79
191.143	1
192.044	10
193.038	4
