Mass spectrum: Oxaziclomefone; LC-ESI-QTOF; MS2; [M+H]+; CID; CE 40V
Name: Oxaziclomefone
Class: Non-natural product
Formula: C20H19Cl2NO2
Exact mass: 375.079284
SMILES: CC1=C(C(=O)N(CO1)C(C)(C)C2=CC(=CC(=C2)Cl)Cl)C3=CC=CC=C3
InChI: InChI=1S/C20H19Cl2NO2/c1-13-18(14-7-5-4-6-8-14)19(24)23(12-25-13)20(2,3)15-9-16(21)11-17(22)10-15/h4-11H,12H2,1-3H3
Instrument: X500R QTOF (AB Sciex LLC, MA, USA) coupled to ExionLC AD (AB Sciex LLC, MA, USA).
Instrument type: LC-ESI-QTOF
Ms type: MS2
Ion mode: POSITIVE
Collision energy: 40 V
Fragmentation mode: CID
Ionization: ESI
Column name: TSKgel ODS-100S 5 um, 2.1 mm Ã— 250 mm, TOSOH
Retention time: 16.0 min
Precursor m/z: 376.086561
Precursor type: [M+H]+
m/z	relative intensity
55.0177	130
105.0698	66
115.0543	111
133.0645	745
158.9763	291
161.0593	999
187.0077	194
190.0859	881
