Mass spectrum: Mexazolam; LC-ESI-QQ; MS2; ESI; NEGATIVE; CID; CE 20 V; [M-H]-
Name: Mexazolam
Class: Non-natural product
Formula: C18H16Cl2N2O2
Exact mass: 362.058876
SMILES: CC1COC2(N1CC(=O)NC3=C2C=C(C=C3)Cl)C4=CC=CC=C4Cl
InChI: InChI=1S/C18H16Cl2N2O2/c1-11-10-24-18(13-4-2-3-5-15(13)20)14-8-12(19)6-7-16(14)21-17(23)9-22(11)18/h2-8,11H,9-10H2,1H3,(H,21,23)
Instrument: LCMS-8040 coupled to Nexera XR (Shimadzu, Kyoto, Japan).
Instrument type: LC-ESI-QQ
Ms type: MS2
Ion mode: NEGATIVE
Ionization: ESI
Collision energy: 20 V
Fragmentation mode: CID
Column name: InertSustain C18 ID 2.1 microm, 2.1 x 100 mm (GL Science, Tokyo, Japan).
Retention time: 10.227 min
Precursor m/z: 361.051599
Precursor type: [M-H]-
m/z	relative intensity
35.1	239
116.0	21
136.1	11
151.7	78
177.1	41
191.8	25
219.1	50
226.0	27
231.2	13
237.8	24
241.1	19
248.8	27
252.1	205
253.1	51
259.0	13
259.7	39
274.1	70
277.0	11
289.0	999
295.1	487
299.0	15
329.3	48
330.9	455
361.2	200
