Mass spectrum: Carpropamid; LC-ESI-QTOF; MS2; [M+H]+; CID; CE 20V
Name: Carpropamid
Class: Non-natural product
Formula: C15H18Cl3NO
Exact mass: 333.045397
SMILES: CCC1(C(C1(Cl)Cl)C)C(=O)NC(C)C2=CC=C(C=C2)Cl
InChI: InChI=1S/C15H18Cl3NO/c1-4-14(10(3)15(14,17)18)13(20)19-9(2)11-5-7-12(16)8-6-11/h5-10H,4H2,1-3H3,(H,19,20)
Instrument: X500R QTOF (AB Sciex LLC, MA, USA) coupled to ExionLC AD (AB Sciex LLC, MA, USA).
Instrument type: LC-ESI-QTOF
Ms type: MS2
Ion mode: POSITIVE
Collision energy: 20 V
Fragmentation mode: CID
Ionization: ESI
Column name: TSKgel ODS-100S 5 um, 2.1 mm Ã— 250 mm, TOSOH
Retention time: 15.5 min
Precursor m/z: 334.052674
Precursor type: [M+H]+
m/z	relative intensity
103.0541	141
124.0757	124
132.0573	85
139.0305	999
160.0522	401
196.0288	973
334.0528	227
