Mass spectrum: Ibuprofen; LC-ESI-QQ; MS; ESI; POSITIVE
Name: Ibuprofen
Class: Non-natural product
Formula: C13H18O2
Exact mass: 206.13068
SMILES: CC(C)CC1=CC=C(C=C1)C(C)C(=O)O
InChI: InChI=1S/C13H18O2/c1-9(2)8-11-4-6-12(7-5-11)10(3)13(14)15/h4-7,9-10H,8H2,1-3H3,(H,14,15)
Instrument: LCMS-8040 coupled to Nexera XR (Shimadzu, Kyoto, Japan).
Instrument type: LC-ESI-QQ
Ms type: MS
Ion mode: POSITIVE
Ionization: ESI
Column name: InertSustain C18 ID 2.1 microm, 2.1 x 100 mm (GL Science, Tokyo, Japan).
Retention time: 9.586 min
m/z	relative intensity
161.2	26
207.2	35
224.3	999
225.3	131
226.3	19
229.2	80
230.2	15
245.2	49
246.2	12
249.3	38
250.3	15
251.2	38
266.4	29
267.2	18
327.2	11
328.3	17
329.2	20
467.3	15
469.3	22
