Mass spectrum: Fenoxaprop-ethyl; LC-ESI-QTOF; MS2; [M+H]+; CID; CE 20V
Name: Fenoxaprop-ethyl
Class: Non-natural product
Formula: C18H16ClNO5
Exact mass: 361.0717
SMILES: CCOC(=O)C(C)OC1=CC=C(C=C1)OC2=NC3=C(O2)C=C(C=C3)Cl
InChI: InChI=1S/C18H16ClNO5/c1-3-22-17(21)11(2)23-13-5-7-14(8-6-13)24-18-20-15-9-4-12(19)10-16(15)25-18/h4-11H,3H2,1-2H3
Instrument: X500R QTOF (AB Sciex LLC, MA, USA) coupled to ExionLC AD (AB Sciex LLC, MA, USA).
Instrument type: LC-ESI-QTOF
Ms type: MS2
Ion mode: POSITIVE
Collision energy: 20 V
Fragmentation mode: CID
Ionization: ESI
Column name: TSKgel ODS-100S 5 um, 2.1 mm Ã— 250 mm, TOSOH
Retention time: 16.1 min
Precursor m/z: 362.078977
Precursor type: [M+H]+
m/z	relative intensity
119.0489	39
121.0645	53
244.0519	141
260.0472	71
288.0412	888
334.0474	109
362.0776	999
