Mass spectrum: Rilmazafone; LC-ESI-QQ; MS2; ESI; NEGATIVE; CID; CE 30 V; [M+HCO2-]-
Name: Rilmazafone
Class: Non-natural product
Formula: C21H20Cl2N6O3
Exact mass: 474.097371
SMILES: CN(C)C(=O)C1=NN(C(=N1)CNC(=O)CN)C2=C(C=C(C=C2)Cl)C(=O)C3=CC=CC=C3Cl
InChI: InChI=1S/C21H20Cl2N6O3/c1-28(2)21(32)20-26-17(11-25-18(30)10-24)29(27-20)16-8-7-12(22)9-14(16)19(31)13-5-3-4-6-15(13)23/h3-9H,10-11,24H2,1-2H3,(H,25,30)
Instrument: LCMS-8040 coupled to Nexera XR (Shimadzu, Kyoto, Japan).
Instrument type: LC-ESI-QQ
Ms type: MS2
Ion mode: NEGATIVE
Ionization: ESI
Collision energy: 30 V
Fragmentation mode: CID
Column name: InertSustain C18 ID 2.1 microm, 2.1 x 100 mm (GL Science, Tokyo, Japan).
Retention time: 8.244 min
Precursor m/z: 519.095574
Precursor type: [M+HCO2]-
m/z	relative intensity
35.2	112
45.2	136
165.7	12
180.7	17
181.9	22
209.0	102
228.0	786
259.9	51
267.0	62
275.9	12
303.0	999
304.2	17
320.9	171
360.9	32
391.9	12
415.9	25
