Mass spectrum: Oxazepam; LC-ESI-QQ; MS2; ESI; NEGATIVE; CE 30 V; [M-H]-
Name: Oxazepam
Class: Non-natural product
Formula: C15H11ClN2O2
Exact mass: 286.05090
SMILES: C1=CC=C(C=C1)C2=NC(C(=O)NC3=C2C=C(C=C3)Cl)O
InChI: InChI=1S/C15H11ClN2O2/c16-10-6-7-12-11(8-10)13(9-4-2-1-3-5-9)18-15(20)14(19)17-12/h1-8,15,20H,(H,17,19)
Instrument: LCMS-8040 coupled to Nexera XR (Shimadzu, Kyoto, Japan).
Instrument type: LC-ESI-QQ
Ms type: MS2
Ion mode: NEGATIVE
Collision energy: 30 V
Ionization: ESI
Column name: InertSustain C18 ID 2.1 microm, 2.1 x 100 mm (GL Science, Tokyo, Japan).
Retention time: 8.957 min
Precursor m/z: 285.04307
Precursor type: [M-H]-
m/z	relative intensity
35	21
42	999
44	207
151	42
154	32
161	21
173	21
179	106
194	43
221	21
241	146
242	43
257	43
284	110
