Mass spectrum: (3aR,4S,6R,6aS)-3a,4-dihydroxy-3,3,6-trimethylhexahydro-1H-cyclopenta[c]furan-1-one; GC-FI-TOF; MS; POSITIVE; 10 kV
Name: (3aR,4S,6R,6aS)-3a,4-dihydroxy-3,3,6-trimethylhexahydro-1H-cyclopenta[c]furan-1-one
Class: Non-natural compound
Formula: C10H16O4
Exact mass: 200.104859
SMILES: CC1(C)OC(=O)[C@H]2[C@H](C)C[C@H](O)[C@]21O
InChI: InChI=1S/C10H16O4/c1-5-4-6(11)10(13)7(5)8(12)14-9(10,2)3/h5-7,11,13H,4H2,1-3H3/t5-,6+,7-,10+/m1/s1
Instrument: JMS-T100GCV (JEOL, Akishima, Japan) coupled to Agilent 7890A (Santa Clara, CA, USA) gas chromatograph.
Instrument type: GC-FI-TOF
Ms type: MS
Ion mode: POSITIVE
Ionization: FI
Column name: HP-5 19091J-413 USD364547H (Agilent, Wilmington, USA) with the length 30.0 m, I.D. 0.32 mm, and thickness 0.25 micrometer.
Retention time: 9.04 min
m/z	relative intensity
114.068	13
172.11	999
173.113	104
174.118	13
182.09	13
183.105	18
199.096	51
200.105	128
201.112	212
202.115	21
