Mass spectrum: Acetazolamide; LC-ESI-QQ; MS2; ESI; POSITIVE; CID; CE 40 V; [M+H]+
Name: Acetazolamide
Class: Non-natural product
Formula: C4H6N4O3S2
Exact mass: 221.988117
SMILES: CC(=O)NC1=NN=C(S1)S(=O)(=O)N
InChI: InChI=1S/C4H6N4O3S2/c1-2(9)6-3-7-8-4(12-3)13(5,10)11/h1H3,(H2,5,10,11)(H,6,7,9)
Instrument: LCMS-8040 coupled to Nexera XR (Shimadzu, Kyoto, Japan).
Instrument type: LC-ESI-QQ
Ms type: MS2
Ion mode: POSITIVE
Collision energy: 40 V
Fragmentation mode: CID
Ionization: ESI
Column name: InertSustain C18 ID 2.1 microm, 2.1 x 100 mm (GL Science, Tokyo, Japan).
Retention time: 4.122 min
Precursor m/z: 222.995394
Precursor type: [M+H]+
m/z	relative intensity
28.4	12
42.3	69
43.2	434
44.2	110
46.2	657
58.2	84
59.2	444
60.2	134
73.2	999
80.1	80
92.5	12
100.1	100
102.2	37
164.0	324
181.0	75
223.0	16
