Mass spectrum: Nordiazepam; LC-ESI-QQ; MS2; ESI; POSITIVE; CID; CE 30 V; [M+H]+
Name: Nordiazepam
Class: Non-natural product
Formula: C15H11ClN2O
Exact mass: 270.055983
SMILES: C1C(=O)NC2=C(C=C(C=C2)Cl)C(=N1)C3=CC=CC=C3
InChI: InChI=1S/C15H11ClN2O/c16-11-6-7-13-12(8-11)15(17-9-14(19)18-13)10-4-2-1-3-5-10/h1-8H,9H2,(H,18,19)
Instrument: LCMS-8040 coupled to Nexera XR (Shimadzu, Kyoto, Japan).
Instrument type: LC-ESI-QQ
Ms type: MS2
Ion mode: POSITIVE
Collision energy: 30 V
Fragmentation mode: CID
Ionization: ESI
Column name: InertSustain C18 ID 2.1 microm, 2.1 x 100 mm (GL Science, Tokyo, Japan).
Retention time: 9.417 min
Precursor m/z: 271.06326
Precursor type: [M+H]+
m/z	relative intensity
77.2	18
91.2	222
104.2	37
105.2	39
113.2	15
116.2	93
117.1	18
127.1	32
129.3	14
130.1	19
133.2	22
138.2	53
140.1	999
144.0	17
150.0	23
158.1	85
165.1	527
166.1	44
168.1	21
179.1	11
180.2	33
181.1	18
190.2	38
191.2	65
193.1	47
199.1	14
206.2	30
207.2	85
208.2	463
214.1	30
216.1	14
218.2	34
219.1	20
226.1	111
227.2	29
235.2	14
241.1	49
242.2	34
243.2	46
271.1	213
