Mass spectrum: Chlorxuron; LC-ESI-QTOF; MS2; [M-H]-; CID; CE 40V
Name: Chlorxuron
Class: Non-natural product
Formula: C15H15ClN2O2
Exact mass: 290.082205
SMILES: CN(C)C(=O)NC1=CC=C(C=C1)OC2=CC=C(C=C2)Cl
InChI: InChI=1S/C15H15ClN2O2/c1-18(2)15(19)17-12-5-9-14(10-6-12)20-13-7-3-11(16)4-8-13/h3-10H,1-2H3,(H,17,19)
Instrument: X500R QTOF (AB Sciex LLC, MA, USA) coupled to ExionLC AD (AB Sciex LLC, MA, USA).
Instrument type: LC-ESI-QTOF
Ms type: MS2
Ion mode: NEGATIVE
Collision energy: 40 V
Fragmentation mode: CID
Ionization: ESI
Column name: TSKgel ODS-100S 5 um, 2.1 mm Ã— 250 mm, TOSOH
Retention time: 15.0 min
Precursor m/z: 289.074928
Precursor type: [M-H]-
m/z	relative intensity
41.9984	177
106.0297	63
118.0296	33
120.0453	487
126.9954	58
134.0245	999
134.0601	174
163.0512	202
178.0746	89
244.017	137
