Mass spectrum: 2-Methyl-5,6-bis(trifluoromethyl)hexahydro-1H-isoindole-1,3(2H)-dione; GC-EI-TOF; MS; POSITIVE; 70 V
Name: 2-Methyl-5,6-bis(trifluoromethyl)hexahydro-1H-isoindole-1,3(2H)-dione
Class: Non-natural compound
Formula: C11H11F6NO2
Exact mass: 303.069398
SMILES: FC(F)(F)C1C[C@H]2[C@@H](CC1C(F)(F)F)C(=O)N(C)C2=O
InChI: InChI=1S/C11H11F6NO2/c1-18-8(19)4-2-6(10(12,13)14)7(11(15,16)17)3-5(4)9(18)20/h4-7H,2-3H2,1H3/t4-,5+,6?,7?
Instrument: JMS-T100GCV (JEOL, Akishima, Japan) coupled to Agilent 7890A (Santa Clara, CA, USA) gas chromatograph.
Instrument type: GC-EI-TOF
Ms type: MS
Ion mode: POSITIVE
Ionization: EI
Column name: DB-5MS 122-5532 USA360633H (Agilent, Wilmington, USA) with the length 30.0 m, I.D. 0.25 mm, and thickness 0.25 micrometer.
Retention time: 8.68 min
m/z	relative intensity
26.014	4
27.021	28
28.017	17
29.024	5
30.032	4
31.988	3
33.012	3
38.014	4
39.021	65
40.028	9
41.037	68
42.009	3
42.033	17
47.028	7
50.014	7
51.003	33
51.021	24
52.029	14
53.001	3
53.037	34
54.008	5
54.045	76
55.016	13
55.047	5
56.011	57
57.016	23
58.027	182
59.028	34
63.02	5
64.014	5
65.018	42
66.043	4
67.047	1
68.024	7
68.993	42
69.991	7
70.02	4
71.028	4
72.035	6
73.043	4
75.003	12
76.01	3
77.027	42
78.044	15
79.053	76
79.117	1
80.059	17
81.032	4
81.06	1
82.028	1
83.028	14
84.036	4
85.043	32
88.01	4
89.018	30
90.025	6
91.051	2
95.009	32
96.036	7
97.043	6
101.018	28
102.026	13
103.034	11
107.025	2
108.018	2
109.043	91
110.05	9
112.039	3
113.015	6
114.026	11
115.034	28
116.038	2
119.009	4
121.025	13
122.032	32
123.035	2
125.019	2
127.034	127
128.039	15
129.05	345
129.576	1
130.054	27
132.017	2
133.025	14
134.032	15
135.04	6
138.054	7
139.017	3
145.017	18
146.032	5
147.041	118
148.047	17
149.056	999
149.614	3
150.06	77
150.533	2
151.016	5
152.023	3
153.031	8
157.024	1
158.019	2
159.042	9
163.016	7
165.031	4
175.036	5
177.032	29
178.039	6
179.048	7
183.023	31
184.026	2
187.044	2
188.069	2
195.023	2
197.039	21
198.047	292
198.693	1
199.052	47
200.056	3
201.155	2
203.028	36
204.032	3
206.078	8
217.044	14
218.052	708
218.581	2
218.727	2
219.055	59
219.822	1
220.059	2
220.374	1
228.082	4
231.061	2
234.075	64
235.078	7
236.071	9
244.032	3
245.039	6
246.064	3
256.076	35
257.079	4
275.075	25
276.078	3
283.065	9
284.071	63
285.074	7
301.054	2
302.062	5
303.069	462
304.073	56
304.5	1
305.076	5
