Mass spectrum: S-Ethyl 2-(trifluoromethyl)benzothioate; GC-EI-TOF; MS; POSITIVE; 70 V
Name: S-Ethyl 2-(trifluoromethyl)benzothioate
Class: Non-natural compound
Formula: C10H9F3OS
Exact mass: 234.03262
SMILES: FC(F)(F)c1ccccc1C(=O)SCC
InChI: InChI=1S/C10H9F3OS/c1-2-15-9(14)7-5-3-4-6-8(7)10(11,12)13/h3-6H,2H2,1H3
Instrument: JMS-T100GCV (JEOL, Akishima, Japan) coupled to Agilent 7890A (Santa Clara, CA, USA) gas chromatograph.
Instrument type: GC-EI-TOF
Ms type: MS
Ion mode: POSITIVE
Ionization: EI
Column name: HP-5MS 30x0.25 0.25um 19091S-4 (Agilent, Wilmington, USA) with the length 30.0 m, I.D. 0.25 mm, and thickness 0.25 micrometer.
Retention time: 8.52 min
m/z	relative intensity
26.016	8
27.023	53
28.006	10
28.031	6
29.039	22
31.989	4
34.996	16
38.016	2
39.023	6
44.98	21
45.988	10
50.016	26
51.023	9
56.98	3
57.014	8
57.988	9
58.996	14
60.003	5
61.011	13
62.015	4
63.023	4
68.006	2
68.995	11
74.016	17
75.023	39
75.084	1
76.031	16
77.037	3
81.014	5
81.988	1
87.006	1
88.012	1
92.99	2
94.022	7
95.029	57
95.106	1
96.034	5
99.005	13
100.012	5
101.019	2
106.019	1
107.029	5
108.003	4
114.028	5
118.003	1
119.011	10
120.008	1
123.006	1
125.02	55
126.027	29
127.034	4
132.019	1
133.027	2
139.002	6
143.011	7
144.018	8
145.026	401
145.622	1
146.03	33
146.487	1
147.033	2
154.023	1
156.993	7
158	6
166.997	15
168	2
172.014	2
173.021	999
173.491	2
173.672	3
174.025	101
174.609	2
175.027	7
175.605	1
176.077	1
176.999	5
187.002	4
188.999	2
215.035	6
234.033	18
235.036	2
236.03	1
