Mass spectrum: 5-(4-{[2-(tetradecanoylamino)ethyl]amino}-4-oxobutanamido)-N,N-dimethylpentan-1-amine N-oxide; ESI-QTOF; MS2; ESI; [M-H]-; CE 60 V
Name: 5-(4-{[2-(tetradecanoylamino)ethyl]amino}-4-oxobutanamido)-N,N-dimethylpentan-1-amine N-oxide
Name: AAO 13-2-2-5
Class: Non-natural product
Formula: C27H54N4O4
Exact mass: 498.41449
SMILES: O=C(NCCNC(=O)CCCCCCCCCCCCC)CCC(=O)NCCCCC[N+]([O-])(C)C
InChI: InChI=1S/C27H54N4O4/c1-4-5-6-7-8-9-10-11-12-13-15-18-25(32)29-22-23-30-27(34)20-19-26(33)28-21-16-14-17-24-31(2,3)35/h4-24H2,1-3H3,(H,28,33)(H,29,32)(H,30,34)
Instrument: X500R QTOF (AB Sciex LLC, MA, USA)
Instrument type: ESI-QTOF
Ms type: MS2
Ion mode: NEGATIVE
Collision energy: 60 V
Fragmentation mode: CID
Ionization: ESI
Precursor m/z: 497.407213 
Precursor type: [M-H]-
m/z	relative intensity
41.99838	92
70.02971	28
72.04533	8
82.02958	9
84.04526	7
85.04051	11
97.04052	67
98.02458	999
101.07185	26
112.04011	13
113.07181	47
115.05106	20
115.08742	11
122.07210	38
123.05617	27
138.09222	87
140.08266	158
141.06675	191
148.07656	12
158.09322	72
165.10305	70
166.08708	343
167.11882	17
168.10275	11
195.11359	43
209.19076	38
226.15570	28
226.21733	132
240.23294	123
252.23310	31
267.24378	33
269.25940	862
