Mass spectrum: Naptalam; LC-ESI-QTOF; MS2; [M+H]+; CID; CE 60V
Name: Naptalam
Class: Non-natural product
Formula: C18H13NO3
Exact mass: 291.089543
SMILES: C1=CC=C2C(=C1)C=CC=C2NC(=O)C3=CC=CC=C3C(=O)O
InChI: InChI=1S/C18H13NO3/c20-17(14-9-3-4-10-15(14)18(21)22)19-16-11-5-7-12-6-1-2-8-13(12)16/h1-11H,(H,19,20)(H,21,22)
Instrument: X500R QTOF (AB Sciex LLC, MA, USA) coupled to ExionLC AD (AB Sciex LLC, MA, USA).
Instrument type: LC-ESI-QTOF
Ms type: MS2
Ion mode: POSITIVE
Collision energy: 60 V
Fragmentation mode: CID
Ionization: ESI
Column name: AQ-C18HP 3 microm, 2.1 mm Ã— 150 mm (GL Science, Tokyo, Japan).
Retention time: 28.7 min
Precursor m/z: 292.09682
Precursor type: [M+H]+
m/z	relative intensity
39.0227	61
65.0386	382
77.0385	168
93.0338	259
117.0701	100
121.0289	176
126.0469	161
127.0541	999
143.0729	256
144.08	155
145.0654	146
149.0233	162
155.0603	92
200.0625	193
201.0711	91
227.0732	336
