Mass spectrum: (E)-(1,1,1,2,2,3,3,6,6,7,7,8,8,8-tetradecafluorooct-4-en-4,5-diyl)dibenzene; GC-EI-TOF; MS; POSITIVE; 70 V
Name: (E)-(1,1,1,2,2,3,3,6,6,7,7,8,8,8-tetradecafluorooct-4-en-4,5-diyl)dibenzene
Class: Non-natural compound
Formula: C20H10F14
Exact mass: 516.055895
SMILES: FC(F)(C(=C(/c1ccccc1)C(F)(F)C(F)(F)C(F)(F)F)\c1ccccc1)C(F)(F)C(F)(F)F
InChI: InChI=1S/C20H10F14/c21-15(22,17(25,26)19(29,30)31)13(11-7-3-1-4-8-11)14(12-9-5-2-6-10-12)16(23,24)18(27,28)20(32,33)34/h1-10H/b14-13+
Instrument: JMS-T100GCV (JEOL, Akishima, Japan) coupled to Agilent 7890A (Santa Clara, CA, USA) gas chromatograph.
Instrument type: GC-EI-TOF
Ms type: MS
Ion mode: POSITIVE
Ionization: EI
Column name: DB-5MS 122-5532 USA360633H (Agilent, Wilmington, USA) with the length 30.0 m, I.D. 0.25 mm, and thickness 0.25 micrometer.
Retention time: 8.64 min
m/z	relative intensity
27.022	4
28.005	4
30.997	4
39.022	12
50.015	13
51.022	50
52.029	5
57.013	3
62.015	4
63.023	18
65.038	3
68.994	100
70.021	2
74.015	8
75.022	17
75.526	3
76.031	54
76.532	5
77.038	84
78.045	19
81.015	4
83.028	2
86.015	3
87.022	8
87.521	2
88.03	22
88.533	4
89.038	50
89.54	6
90.522	2
91.025	2
91.53	8
93.019	3
93.526	3
94.028	8
94.534	4
95.031	2
96.036	6
97.027	2
98.021	4
99.014	7
99.993	7
100.525	11
101.028	8
102.045	6
102.522	2
103.024	7
103.53	18
104.033	13
104.537	16
105.038	3
106.021	8
107.029	7
109.037	3
109.527	2
110.033	6
111.021	3
112.016	3
112.525	8
113.031	9
113.533	21
114.036	17
114.538	2
115.053	5
116.024	14
116.526	2
118.022	3
118.524	3
119.029	92
119.531	21
120.036	8
121.52	2
123.019	3
124.02	3
125.023	8
126.045	19
127.035	118
128.027	27
128.527	8
129.032	45
129.534	10
131.028	5
132.036	6
133.044	6
134.025	3
134.528	13
135.029	4
137.03	4
138.031	10
138.53	3
139.048	14
140.051	2
143.025	3
143.523	7
144.029	14
144.53	4
145.027	6
149.03	3
150.044	19
151.039	78
152.062	52
153.066	9
153.526	2
154.03	5
154.077	9
156.03	2
157.043	6
158.035	4
159.024	2
161.025	2
162.031	4
163.05	6
164.047	4
165.069	4
168.035	3
168.522	3
169.026	16
170.05	5
174.044	3
175.044	9
176.062	71
177.069	49
177.206	3
178.077	925
178.687	3
179.081	137
179.685	2
180.085	10
180.694	1
181.043	11
181.186	1
182.035	19
183.06	17
184.064	2
186.029	3
187.047	6
188.046	9
189.069	18
190.073	3
193.03	4
194.051	4
195.046	2
196.068	11
197.073	2
198.028	2
199.035	7
200.025	33
201.049	31
202.054	4
205.044	8
206.047	10
207.06	93
208.067	37
209.076	240
210.079	38
211.083	3
212.042	5
213.034	6
214.057	6
217.038	3
218.05	6
219.031	16
220.067	13
221.072	3
223.036	3
224.036	3
225.05	31
226.056	10
227.066	284
227.757	1
228.074	584
228.786	2
229.078	89
229.893	1
230.08	7
231.025	7
232.044	5
233.057	2
236.043	6
237.046	9
238.059	147
239.066	80
240.071	16
241.074	2
243.041	5
244.045	2
245.056	3
246.065	45
247.068	7
248.026	6
248.527	2
249.048	3
250.025	11
251.044	5
254.032	2
255.037	2
256.049	43
256.178	2
257.057	69
258.065	265
259.069	53
260.073	5
261.033	2
263.047	5
264.055	2
267.042	3
268.046	2
269.048	47
270.059	9
274.04	4
275.047	4
276.055	5
277.063	29
278.071	207
279.075	35
280.076	3
287.049	33
288.056	59
289.062	18
290.066	3
296.063	3
300.024	3
301.034	1
306.045	2
307.056	24
308.062	49
309.066	9
313.044	4
319.019	11
320.03	2
326.054	2
327.062	100
328.068	47
329.072	7
330.064	2
337.046	7
338.053	11
339.058	3
346.059	25
347.067	556
348.071	100
348.629	2
349.074	8
349.287	1
350.057	1
357.053	11
358.059	15
359.064	4
367.034	2
369.034	3
376.05	2
377.058	43
378.066	83
379.07	15
380.073	2
382.044	8
383.046	1
388.052	12
389.055	3
395.049	2
396.055	4
397.065	332
398.068	65
399.071	5
407.047	2
408.057	6
409.06	1
419.012	2
427.055	2
438.012	1
457.046	6
458.051	2
477.053	12
478.057	4
488.028	2
497.057	17
498.062	3
501.034	121
502.038	25
503.046	3
515.048	5
516.056	999
517.06	217
518.063	25
518.832	3
519.685	2
520.542	1
521.364	1
