Mass spectrum: Amantadine; LC-ESI-QQ; MS2; ESI; POSITIVE; CID; CE 40 V; [M+H]+
Name: Amantadine
Class: Non-natural product
Formula: C10H17N
Exact mass: 151.136095
SMILES: C1C2CC3CC1CC(C2)(C3)N
InChI: InChI=1S/C10H17N/c11-10-4-7-1-8(5-10)3-9(2-7)6-10/h7-9H,1-6,11H2
Instrument: LCMS-8040 coupled to Nexera XR (Shimadzu, Kyoto, Japan).
Instrument type: LC-ESI-QQ
Ms type: MS2
Ion mode: POSITIVE
Collision energy: 40 V
Fragmentation mode: CID
Ionization: ESI
Column name: InertSustain C18 ID 2.1 microm, 2.1 x 100 mm (GL Science, Tokyo, Japan).
Retention time: 6.176 min
Precursor m/z: 152.143372
Precursor type: [M+H]+
m/z	relative intensity
29.3	25
39.2	57
41.3	164
43.3	30
51.2	106
53.2	114
55.3	227
65.2	60
67.2	244
69.2	69
77.2	999
79.2	923
81.3	340
91.2	523
93.2	560
105.2	62
107.2	260
133.3	28
135.2	508
151.8	18
