Mass spectrum: Chloridazon; LC-ESI-QTOF; MS; NEGATIVE
Name: Chloridazon
Class: Non-natural product
Formula: C10H8ClN3O
Exact mass: 221.03559
SMILES: C1=CC=C(C=C1)N2C(=O)C(=C(C=N2)N)Cl
InChI: InChI=1S/C10H8ClN3O/c11-9-8(12)6-13-14(10(9)15)7-4-2-1-3-5-7/h1-6H,12H2
Instrument: X500R QTOF (AB Sciex LLC, MA, USA) coupled to ExionLC AD (AB Sciex LLC, MA, USA).
Instrument type: LC-ESI-QTOF
Ms type: MS
Ion mode: NEGATIVE
Ionization: ESI
Column name: TSKgel ODS-100S 5 um, 2.1 mm Ã— 250 mm, TOSOH
Retention time: 11.7 min
m/z	relative intensity
220.0285	999
221.0317	128
222.0257	355
223.0287	44
