Mass spectrum: Clonazepam; LC-ESI-QQ; MS2; ESI; POSITIVE; CE 50 V; [M+H]+
Name: Clonazepam
Class: Non-natural product
Formula: C15H10ClN3O3
Exact mass: 315.04105
SMILES: C1C(=O)NC2=C(C=C(C=C2)[N+](=O)[O-])C(=N1)C3=CC=CC=C3Cl
InChI: InChI=1S/C15H10ClN3O3/c16-12-4-2-1-3-10(12)15-11-7-9(19(21)22)5-6-13(11)18-14(20)8-17-15/h1-7H,8H2,(H,18,20)
Instrument: LCMS-8040 coupled to Nexera XR (Shimadzu, Kyoto, Japan).
Instrument type: LC-ESI-QQ
Ms type: MS2
Ion mode: POSITIVE
Collision energy: 50 V
Ionization: ESI
Column name: InertSustain C18 ID 2.1 microm, 2.1 x 100 mm (GL Science, Tokyo, Japan).
Retention time: 8.612 min
Precursor m/z: 316.04834
Precursor type: [M+H]+
m/z	relative intensity
31	26
51	60
53	26
77	74
78	52
79	13
81	26
90	26
91	26
93	13
103	99
104	279
105	52
116	83
117	26
125	51
126	13
128	52
129	141
130	33
131	52
132	26
138	122
140	26
150	88
151	380
152	413
153	103
157	26
159	52
163	52
164	52
165	160
166	208
167	140
168	38
177	78
178	178
179	358
180	420
181	75
186	48
190	616
191	88
192	204
195	13
197	13
198	13
199	64
201	25
202	26
203	26
204	26
205	379
206	655
207	228
214	999
217	26
218	13
222	48
223	52
224	51
226	62
227	26
228	26
234	131
235	12
239	57
240	157
241	294
251	13
257	26
270	79
316	20
