Mass spectrum: Talipexole; LC-ESI-QQ; MS2; ESI; POSITIVE; CID; CE 40 V; [M+H]+
Name: Talipexole
Class: Non-natural product
Formula: C10H15N3S
Exact mass: 209.098656
SMILES: C=CCN1CCC2=C(CC1)SC(=N2)N
InChI: InChI=1S/C10H15N3S/c1-2-5-13-6-3-8-9(4-7-13)14-10(11)12-8/h2H,1,3-7H2,(H2,11,12)
Instrument: LCMS-8040 coupled to Nexera XR (Shimadzu, Kyoto, Japan).
Instrument type: LC-ESI-QQ
Ms type: MS2
Ion mode: POSITIVE
Collision energy: 40 V
Fragmentation mode: CID
Ionization: ESI
Column name: InertSustain C18 ID 2.1 microm, 2.1 x 100 mm (GL Science, Tokyo, Japan).
Retention time: 4.719 min
Precursor m/z: 210.105933
Precursor type: [M+H]+
m/z	relative intensity
39.3	86
41.3	526
42.3	128
43.2	26
45.3	23
51.1	15
53.3	19
55.3	52
56.4	26
59.2	59
60.2	12
65.3	67
66.4	11
67.3	58
68.3	44
69.1	12
70.1	22
71.2	24
77.2	88
78.2	14
80.3	97
81.3	67
82.3	76
84.3	145
85.2	84
86.3	36
92.2	29
93.2	46
94.2	50
95.2	24
97.1	140
99.2	44
100.2	491
109.3	50
110.3	12
111.1	14
112.1	29
113.2	80
114.2	39
119.2	13
124.2	10
127.2	999
128.3	15
139.1	120
141.2	186
142.2	116
153.1	16
169.3	12
210.1	20
