Mass spectrum: Cloxazolam; LC-ESI-QQ; MS; ESI; NEGATIVE
Name: Cloxazolam
Class: Non-natural product
Formula: C17H14Cl2N2O2
Exact mass: 348.04323
SMILES: C1COC2(N1CC(=O)NC3=C2C=C(C=C3)Cl)C4=CC=CC=C4Cl
InChI: InChI=1S/C17H14Cl2N2O2/c18-11-5-6-15-13(9-11)17(12-3-1-2-4-14(12)19)21(7-8-23-17)10-16(22)20-15/h1-6,9H,7-8,10H2,(H,20,22)
Instrument: LCMS-8040 coupled to Nexera XR (Shimadzu, Kyoto, Japan).
Instrument type: LC-ESI-QQ
Ms type: MS
Ion mode: NEGATIVE
Ionization: ESI
Column name: InertSustain C18 ID 2.1 microm, 2.1 x 100 mm (GL Science, Tokyo, Japan).
Retention time: 9.919 min
m/z	relative intensity
135	16
263	12
279	35
281	70
283	29
289	11
297	10
313	15
317	83
319	62
320	16
321	12
345	21
347	999
349	649
350	123
351	92
352	23
371	13
383	149
385	155
386	35
387	38
389	18
393	18
413	53
415	11
437	21
445	11
459	69
460	17
461	13
