Mass spectrum: Carvedilol; LC-ESI-QQ; MS2; ESI; POSITIVE; CID; CE 30 V; [M+H]+
Name: Carvedilol
Class: Non-natural product
Formula: C24H26N2O4
Exact mass: 406.18925
SMILES: COC1=CC=CC=C1OCCNCC(COC2=CC=CC3=C2C4=CC=CC=C4N3)O
InChI: InChI=1S/C24H26N2O4/c1-28-21-10-4-5-11-22(21)29-14-13-25-15-17(27)16-30-23-12-6-9-20-24(23)18-7-2-3-8-19(18)26-20/h2-12,17,25-27H,13-16H2,1H3
Instrument: LCMS-8040 coupled to Nexera XR (Shimadzu, Kyoto, Japan).
Instrument type: LC-ESI-QQ
Ms type: MS2
Ion mode: POSITIVE
Collision energy: 30 V
Fragmentation mode: CID
Ionization: ESI
Column name: InertSustain C18 ID 2.1 microm, 2.1 x 100 mm (GL Science, Tokyo, Japan).
Retention time: 8.274 min
Precursor m/z: 407.196527
Precursor type: [M+H]+
m/z	relative intensity
44.3	54
55.2	15
56.3	179
58.2	44
70.2	17
72.4	19
74.3	17
82.3	64
84.4	15
86.3	86
88.2	16
93.1	28
95.2	11
100.2	999
102.4	13
121.3	46
123.3	32
135.0	21
151.2	59
166.9	16
168.1	19
180.2	97
183.2	24
184.1	70
194.2	284
196.1	95
198.2	14
204.3	12
206.2	52
207.2	18
208.3	40
210.1	69
211.3	15
212.4	22
222.2	377
224.2	317
236.3	13
237.8	15
247.2	16
283.2	76
407.1	24
