Mass spectrum: Acetaminophen; LC-ESI-QQ; MS2; ESI; POSITIVE; CID; CE 30 V; [M+H]+
Name: Acetaminophen
Class: Non-natural product
Formula: C8H9NO2
Exact mass: 151.063325
SMILES: CC(=O)NC1=CC=C(C=C1)O
InChI: InChI=1S/C8H9NO2/c1-6(10)9-7-2-4-8(11)5-3-7/h2-5,11H,1H3,(H,9,10)
Instrument: LCMS-8040 coupled to Nexera XR (Shimadzu, Kyoto, Japan).
Instrument type: LC-ESI-QQ
Ms type: MS2
Ion mode: POSITIVE
Collision energy: 30 V
Fragmentation mode: CID
Ionization: ESI
Column name: InertSustain C18 ID 2.1 microm, 2.1 x 100 mm (GL Science, Tokyo, Japan).
Retention time: 4.203 min
Precursor m/z: 152.070602
Precursor type: [M+H]+
m/z	relative intensity
39.2	78
42.1	16
43.2	378
55.2	18
65.2	999
67.2	57
80.2	45
81.2	11
82.3	114
92.2	259
93.2	611
109.2	57
110.2	717
152.2	29
