Mass spectrum: Olanzapine; LC-ESI-QQ; MS2; ESI; POSITIVE; CID; CE 40 V; [M+H]+
Name: Olanzapine
Class: Non-natural product
Formula: C17H20N4S
Exact mass: 312.140851
SMILES: CC1=CC2=C(S1)NC3=CC=CC=C3N=C2N4CCN(CC4)C
InChI: InChI=1S/C17H20N4S/c1-12-11-13-16(21-9-7-20(2)8-10-21)18-14-5-3-4-6-15(14)19-17(13)22-12/h3-6,11,19H,7-10H2,1-2H3
Instrument: LCMS-8040 coupled to Nexera XR (Shimadzu, Kyoto, Japan).
Instrument type: LC-ESI-QQ
Ms type: MS2
Ion mode: POSITIVE
Collision energy: 40 V
Fragmentation mode: CID
Ionization: ESI
Column name: InertSustain C18 ID 2.1 microm, 2.1 x 100 mm (GL Science, Tokyo, Japan).
Retention time: 8.284 min
Precursor m/z: 313.148128
Precursor type: [M+H]+
m/z	relative intensity
30.4	10
42.3	256
44.2	18
53.3	14
55.4	29
56.2	14
58.3	109
65.3	10
68.3	16
69.4	14
72.3	17
82.2	39
83.3	15
84.2	386
85.3	50
92.2	19
98.4	16
104.2	32
106.2	19
109.0	16
115.2	12
116.1	29
117.2	12
118.9	23
120.3	27
124.1	11
126.8	22
132.1	43
140.1	11
142.1	137
146.1	43
148.3	23
150.2	13
152.2	21
153.3	45
154.1	15
155.2	20
160.2	15
167.2	37
169.2	532
170.3	22
173.2	75
174.0	14
179.2	168
180.2	308
181.3	16
182.2	29
183.2	30
184.9	19
186.1	274
187.0	15
193.3	23
194.3	12
195.2	78
196.2	34
198.1	999
200.2	64
205.1	12
206.3	14
207.9	18
210.1	11
211.0	49
212.1	224
213.2	444
214.9	56
216.2	23
218.2	16
220.1	12
221.0	31
222.2	354
223.3	62
224.1	66
225.0	17
226.4	52
227.2	56
228.3	56
229.1	10
230.1	19
233.3	31
238.1	16
239.1	44
240.1	37
241.1	44
241.9	15
250.2	37
254.0	22
255.0	32
256.2	648
270.3	16
282.1	101
312.5	15
313.2	12
