Mass spectrum: 7-Methyl-1-(2,2,3,3,4,4,4-heptafluorobutyl)-1,2,3,4-tetrahydronaphthalene; GC-EI-TOF; MS; POSITIVE; 70 V
Name: 7-Methyl-1-(2,2,3,3,4,4,4-heptafluorobutyl)-1,2,3,4-tetrahydronaphthalene
Class: Non-natural compound
Formula: C15H15F7
Exact mass: 328.106196
SMILES: FC(F)(F)C(F)(F)C(F)(F)C[C@H]1CCCc2ccc(C)cc21
InChI: InChI=1S/C15H15F7/c1-9-5-6-10-3-2-4-11(12(10)7-9)8-13(16,17)14(18,19)15(20,21)22/h5-7,11H,2-4,8H2,1H3/t11-/m1/s1
Instrument: JMS-T100GCV (JEOL, Akishima, Japan) coupled to Agilent 7890A (Santa Clara, CA, USA) gas chromatograph.
Instrument type: GC-EI-TOF
Ms type: MS
Ion mode: POSITIVE
Ionization: EI
Column name: ZB-1MS 7HM-G011-11 sn:313446 (Agilent, Wilmington, USA) with the length 30.0 m, I.D. 0.32 mm, and thickness 0.25 micrometer.
Retention time: 7.95 min
m/z	relative intensity
27.024	12
28.007	10
28.031	3
29.04	4
31.99	4
39.024	21
41.04	13
50.016	4
51.024	18
52.031	4
53.04	14
57.528	5
63.024	13
64.032	12
64.535	3
65.04	19
67.055	4
68.996	26
70.032	5
70.536	28
71.04	31
71.543	24
72.047	12
72.551	9
75.024	4
76.032	5
77.04	28
78.047	10
79.055	9
89.039	8
91.055	52
92.061	6
94.555	3
95.012	7
99.994	2
101.039	2
102.047	7
103.055	14
104.062	5
105.071	89
106.074	7
115.055	90
116.062	31
117.071	54
118.079	122
118.166	1
118.993	5
119.083	12
123.062	2
126.047	3
127.055	28
128.063	105
128.151	1
129.071	113
129.174	2
130.078	94
131.086	40
132.09	4
133.046	4
139.055	4
141.071	29
142.078	16
143.087	51
144.094	27
145.102	999
145.696	3
146.054	9
146.106	112
146.563	2
147.06	4
147.109	6
151.038	2
152.063	3
153.07	3
155.087	3
157.102	3
158.11	3
159.062	3
159.118	9
160.069	3
161.077	7
164.045	3
165.053	3
177.052	2
181.083	23
182.087	3
267.061	3
285.053	2
287.068	3
289.102	3
299.068	2
300.075	20
301.078	2
309.108	10
313.083	46
314.086	6
327.098	14
328.106	235
329.11	35
330.114	2
