Mass spectrum: Azelnidipine; LC-ESI-QQ; MS2; ESI; NEGATIVE; CID; CE 40 V; [M-H]-
Name: Azelnidipine
Class: Non-natural product
Formula: C33H34N4O6
Exact mass: 582.24782
SMILES: CC1=C(C(C(=C(N1)N)C(=O)OC2CN(C2)C(C3=CC=CC=C3)C4=CC=CC=C4)C5=CC(=CC=C5)[N+](=O)[O-])C(=O)OC(C)C
InChI: InChI=1S/C33H34N4O6/c1-20(2)42-32(38)27-21(3)35-31(34)29(28(27)24-15-10-16-25(17-24)37(40)41)33(39)43-26-18-36(19-26)30(22-11-6-4-7-12-22)23-13-8-5-9-14-23/h4-17,20,26,28,30,35H,18-19,34H2,1-3H3
Instrument: LCMS-8040 coupled to Nexera XR (Shimadzu, Kyoto, Japan).
Instrument type: LC-ESI-QQ
Ms type: MS2
Ion mode: NEGATIVE
Collision energy: 40 V
Fragmentation mode: CID
Ionization: ESI
Column name: InertSustain C18 ID 2.1 microm, 2.1 x 100 mm (GL Science, Tokyo, Japan).
Retention time: 11.165 min
Precursor m/z: 581.240543
Precursor type: [M-H]-
m/z	relative intensity
41.2	13
42.0	12
46.1	20
66.1	25
92.2	11
107.0	291
120.1	13
122.0	47
133.1	34
161.0	15
162.0	11
167.1	21
169.1	21
173.0	31
177.0	999
180.2	13
183.2	17
184.9	10
187.1	14
193.1	59
208.1	29
210.1	34
211.1	28
213.0	46
214.0	142
219.0	38
225.0	31
226.1	83
227.0	11
228.1	20
229.1	21
237.1	22
238.0	37
239.2	16
240.0	28
240.9	12
252.1	14
254.0	151
255.1	27
256.1	38
273.1	51
282.0	228
283.2	13
284.2	11
299.1	325
300.1	54
315.0	13
325.6	15
342.1	307
