Mass spectrum: Bromazepam; LC-ESI-QQ; MS2; ESI; POSITIVE; CID: CE 30 V; [M+H]+
Name: Bromazepam
Class: Non-natural product
Formula: C14H10BrN3O
Exact mass: 315.00071
SMILES: C1C(=O)NC2=C(C=C(C=C2)Br)C(=N1)C3=CC=CC=N3
InChI: InChI=1S/C14H10BrN3O/c15-9-4-5-11-10(7-9)14(17-8-13(19)18-11)12-3-1-2-6-16-12/h1-7H,8H2,(H,18,19)
Instrument: LCMS-8040 coupled to Nexera XR (Shimadzu, Kyoto, Japan).
Instrument type: LC-ESI-QQ
Ms type: MS2
Ion mode: POSITIVE
Collision energy: 30 V
Fragmentation mode: CID
Ionization: ESI
Column name: InertSustain C18 ID 2.1 microm, 2.1 x 100 mm (GL Science, Tokyo, Japan).
Retention time: 8.299 min
Precursor m/z: 316.00799
Precursor type: [M+H]+
m/z	relative intensity
53.4	11
78.1	43
79.3	11
80.3	174
96.4	11
104.4	23
105.2	50
106.1	28
118.3	11
129.3	17
133.1	47
135.2	30
159.0	10
180.3	11
181.1	97
182.2	999
184.1	308
186.4	11
191.6	13
193.1	10
194.1	26
208.2	343
209.2	996
211.9	11
236.1	31
258.9	46
260.1	282
261.1	449
287.2	30
288.2	82
316.1	252
