Mass spectrum: Brotizolam; LC-ESI-QQ; MS2; ESI; POSITIVE; CID; CE 40 V; [M+H]+
Name: Brotizolam
Class: Non-natural product
Formula: C15H10BrClN4S
Exact mass: 391.949792
SMILES: CC1=NN=C2N1C3=C(C=C(S3)Br)C(=NC2)C4=CC=CC=C4Cl
InChI: InChI=1S/C15H10BrClN4S/c1-8-19-20-13-7-18-14(9-4-2-3-5-11(9)17)10-6-12(16)22-15(10)21(8)13/h2-6H,7H2,1H3
Instrument: LCMS-8040 coupled to Nexera XR (Shimadzu, Kyoto, Japan).
Instrument type: LC-ESI-QQ
Ms type: MS2
Ion mode: POSITIVE
Collision energy: 40 V
Fragmentation mode: CID
Ionization: ESI
Column name: InertSustain C18 ID 2.1 microm, 2.1 x 100 mm (GL Science, Tokyo, Japan).
Retention time: 8.988 min
Precursor m/z: 392.957069
Precursor type: [M+H]+
m/z	relative intensity
38.0	50
50.3	25
54.3	50
57.1	81
65.0	50
66.4	84
78.4	47
82.3	25
95.0	50
100.8	99
102.3	124
108.0	78
109.2	133
110.9	58
122.2	47
123.1	50
133.1	50
134.1	99
136.2	367
137.2	67
138.2	337
145.0	50
147.2	25
148.3	50
149.1	74
152.1	50
154.3	25
155.7	154
161.8	50
162.9	50
164.2	99
165.2	99
166.1	400
171.1	453
172.0	47
173.1	47
175.9	88
177.1	174
178.2	50
179.1	25
180.3	50
181.9	99
183.4	47
184.2	99
187.0	215
188.1	354
191.2	149
193.1	38
194.3	99
197.1	25
201.0	202
202.0	99
206.1	50
207.1	49
209.0	224
210.2	742
211.1	378
213.3	99
214.9	240
216.6	50
219.2	153
221.1	50
222.2	71
223.0	164
224.2	187
226.0	194
227.2	50
231.7	47
234.1	74
235.0	398
236.1	50
238.2	121
240.9	108
244.2	235
245.1	379
246.3	279
249.3	149
251.3	235
253.3	295
256.2	179
257.0	149
259.2	825
261.8	50
269.1	204
271.2	50
272.4	146
273.1	133
275.1	99
278.1	236
279.2	864
282.2	678
285.1	430
288.1	74
289.1	385
290.0	14
297.9	50
299.0	49
302.0	25
302.9	71
311.0	149
314.2	999
324.8	47
330.9	50
338.2	50
339.2	99
349.0	50
357.4	50
365.1	71
392.4	50
393.1	25
