Mass spectrum: Estazolam; LC-ESI-QQ; MS2; ESI; POSITIVE; CE 30 V; [M+H]+
Name: Estazolam
Class: Non-natural product
Formula: C16H11ClN4
Exact mass: 294.06721
SMILES: C1C2=NN=CN2C3=C(C=C(C=C3)Cl)C(=N1)C4=CC=CC=C4
InChI: InChI=1S/C16H11ClN4/c17-12-6-7-14-13(8-12)16(11-4-2-1-3-5-11)18-9-15-20-19-10-21(14)15/h1-8,10H,9H2
Instrument: LCMS-8040 coupled to Nexera XR (Shimadzu, Kyoro, Japan).
Instrument type: LC-ESI-QQ
Ms type: MS2
Ion mode: POSITIVE
Collision energy: 30 V
Ionization: ESI
Column name: InertSustain C18 ID 2.1 microm, 2.1 x 100 mm (GL Science, Tokyo, Japan).
Retention time: 8.765 min
Precursor m/z: 295.07449
Precursor type: [M+H]+
m/z	relative intensity
111	24
129	17
131	18
138	68
153	11
157	15
163	11
165	83
177	12
190	28
191	14
192	43
204	10
205	268
216	12
227	14
231	14
232	10
239	29
240	70
241	40
260	21
267	999
295	77
