Mass spectrum: (3aS,4R,6R,6aR)-3a,4-dihydroxy-3,3,6-trimethylhexahydro-1H-cyclopenta[c]furan-1-one; GC-EI-TOF; MS; POSITIVE; 70 V
Name: (3aS,4R,6R,6aR)-3a,4-dihydroxy-3,3,6-trimethylhexahydro-1H-cyclopenta[c]furan-1-one
Class: Non-natural compound
Formula: C10H16O4
Exact mass: 200.104859
SMILES: CC1(C)OC(=O)[C@@H]2[C@H](C)C[C@@H](O)[C@@]21O
InChI: InChI=1S/C10H16O4/c1-5-4-6(11)10(13)7(5)8(12)14-9(10,2)3/h5-7,11,13H,4H2,1-3H3/t5-,6-,7+,10-/m1/s1
Instrument: JMS-T100GCV (JEOL, Akishima, Japan) coupled to Agilent 7890A (Santa Clara, CA, USA) gas chromatograph.
Instrument type: GC-EI-TOF
Ms type: MS
Ion mode: POSITIVE
Ionization: EI
Column name: HP-5 19091J-413 USD364547H (Agilent, Wilmington, USA) with the length 30.0 m, I.D. 0.32 mm, and thickness 0.25 micrometer.
Retention time: 9.05 min
m/z	relative intensity
26.016	12
27.023	167
27.066	2
28.006	4
28.031	17
29.003	68
29.039	109
29.084	2
30.01	8
30.043	3
31.018	71
38.016	8
39.024	266
39.308	1
40.031	48
41.003	3
41.039	494
41.325	1
42.011	37
42.046	92
43.018	661
43.055	83
43.147	2
43.341	2
43.563	1
44.026	112
44.058	4
44.998	7
45.034	33
47.014	4
50.016	6
51.024	31
52.031	18
53.003	16
53.039	167
54.011	12
54.046	28
55.018	83
55.055	98
56.025	13
56.062	16
57.034	97
57.07	56
58.005	23
58.041	26
58.073	3
59.05	163
60.021	10
60.053	5
63.024	5
65.039	40
66.047	18
67.019	7
67.055	137
68.026	23
68.062	110
68.129	1
68.998	31
69.034	255
69.069	25
70.004	5
70.041	321
71.013	21
71.049	223
72.021	34
72.056	23
73.029	11
77.039	44
78.046	8
79.055	36
80.026	5
80.061	5
81.034	558
81.208	1
81.435	2
81.478	2
81.809	1
82.038	36
82.077	7
83.05	109
84.021	5
84.057	29
85.029	7
85.065	15
86.037	5
86.073	10
87.008	101
87.044	45
88.011	3
88.049	3
91.055	17
93.071	12
94.042	6
94.077	3
95.05	116
95.086	15
95.185	3
96.057	525
96.499	1
96.542	2
97.029	61
97.064	107
98.035	8
98.068	7
99.044	687
99.237	2
99.534	2
99.873	1
100.017	11
100.048	37
101.059	21
102.067	4
105.07	4
107.05	3
107.086	3
109.066	6
109.102	3
110.073	4
111.045	84
111.081	13
111.179	2
112.052	114
112.089	21
113.024	7
113.059	35
114.068	999
114.593	3
115.04	24
115.071	64
115.349	1
115.413	1
116.073	6
121.066	4
123.045	5
123.081	10
124.052	2
125.06	5
129.055	59
130.063	315
131.066	21
137.061	14
138.068	14
138.105	8
139.076	18
140.048	2
140.08	2
141.056	25
149.06	6
154.1	3
155.071	8
156.078	7
164.085	4
167.071	19
172.111	38
173.114	3
182.095	8
185.082	20
186.085	2
