Mass spectrum: Carbamazepine; LC-ESI-QQ; MS2; ESI; POSITIVE; CID; CE 30 V; [M+H]+
Name: Carbamazepine
Class: Non-natural product
Formula: C15H12N2O
Exact mass: 236.094955
SMILES: C1=CC=C2C(=C1)C=CC3=CC=CC=C3N2C(=O)N
InChI: InChI=1S/C15H12N2O/c16-15(18)17-13-7-3-1-5-11(13)9-10-12-6-2-4-8-14(12)17/h1-10H,(H2,16,18)
Instrument: LCMS-8040 coupled to Nexera XR (Shimadzu, Kyoto, Japan).
Instrument type: LC-ESI-QQ
Ms type: MS2
Ion mode: POSITIVE
Collision energy: 30 V
Fragmentation mode: CID
Ionization: ESI
Column name: InertSustain C18 ID 2.1 microm, 2.1 x 100 mm (GL Science, Tokyo, Japan).
Retention time: 8.428 min
Precursor m/z: 237.102232
Precursor type: [M+H]+
m/z	relative intensity
116.2	15
117.2	10
152.1	25
165.1	66
166.1	14
167.1	46
177.1	26
178.2	26
179.1	176
190.1	14
191.2	61
192.1	340
193.2	329
194.1	999
