Mass spectrum: S-Ethyl 4-(dimethylamino)benzothioate; GC-EI-TOF; MS; POSITIVE; 70 V
Name: S-Ethyl 4-(dimethylamino)benzothioate
Class: Non-natural compound
Formula: C11H15NOS
Exact mass: 209.087431
SMILES: CCSC(=O)C1=CC=C(C=C1)N(C)C
InChI: InChI=1S/C11H15NOS/c1-4-14-11(13)9-5-7-10(8-6-9)12(2)3/h5-8H,4H2,1-3H3
Instrument: JMS-T100GCV (JEOL, Akishima, Japan) coupled to Agilent 7890A (Santa Clara, CA, USA) gas chromatograph.
Instrument type: GC-EI-TOF
Ms type: MS
Ion mode: POSITIVE
Ionization: EI
Column name: ZB-1MS 7HM-G011-11 sn:313446 (Agilent, Wilmington, USA) with the length 30.0 m, I.D. 0.32 mm, and thickness 0.25 micrometer.
Retention time: 10.11 min
m/z	relative intensity
27.023	18
28.006	8
29.039	12
31.99	4
34.996	5
39.023	9
41.039	4
42.034	54
43.041	4
44.05	5
44.98	4
45.988	3
50.016	12
51.023	17
52.03	6
53.039	3
55.054	2
58.529	3
58.995	3
59.537	3
63.023	15
64.027	4
65.039	10
66.036	3
67.054	2
68.05	4
69.059	4
73.534	9
74.015	3
75.023	6
76.031	19
77.039	75
78.045	29
79.054	27
80.052	5
81.061	2
89.038	3
90.035	13
90.546	3
91.054	31
92.056	12
93.063	5
94.066	3
102.035	2
103.053	6
104.05	54
105.057	60
106.061	5
108.082	3
109.011	2
117.058	6
118.065	28
119.073	38
120.081	37
121.084	4
132.044	9
136.021	6
146.06	5
147.067	2
148.076	999
148.68	3
149.079	106
149.55	2
149.968	1
150.081	8
151.045	4
152.053	33
153.056	3
180.048	2
208.08	3
209.087	85
209.199	1
210.09	12
211.085	5
