Mass spectrum: Nimetazepam; LC-ESI-QQ; MS2; ESI; POSITIVE; CID; CE 30 V; [M+H]+
Name: Nimetazepam
Class: Non-natural product
Formula: C16H13N3O3
Exact mass: 295.09568
SMILES: CN1C(=O)CN=C(C2=C1C=CC(=C2)[N+](=O)[O-])C3=CC=CC=C3
InChI: InChI=1S/C16H13N3O3/c1-18-14-8-7-12(19(21)22)9-13(14)16(17-10-15(18)20)11-5-3-2-4-6-11/h2-9H,10H2,1H3
Instrument: LCMS-8040 coupled to Nexera XR (Shimadzu, Kyoto, Japan).
Instrument type: LC-ESI-QQ
Ms type: MS2
Ion mode: POSITIVE
Collision energy: 30 V
Fragmentation mode: CID
Ionization: ESI
Column name: InertSustain C18 ID 2.1 microm, 2.1 x 100 mm (GL Science, Tokyo, Japan).
Retention time: 8.827 min
Precursor m/z: 296.102957
Precursor type: [M+H]+
m/z	relative intensity
91.2	56
105.1	37
118.3	22
119.2	41
143.2	17
147.0	36
152.2	21
165.2	65
172.2	18
179.1	45
180.2	24
181.1	25
190.1	10
192.2	45
193.2	125
194.2	57
201.2	17
204.1	31
206.2	28
207.1	40
209.1	18
210.2	28
220.1	11
221.2	276
222.2	218
237.1	15
239.1	36
250.2	999
252.1	14
265.2	13
268.2	44
296.2	166
