Mass spectrum: Bensulfuron-methyl; LC-ESI-QTOF; MS2; [M-H]-; CID; CE 60V
Name: Bensulfuron-methyl
Class: Non-natural product
Formula: C16H18N4O7S
Exact mass: 410.08962
SMILES: COC1=CC(=NC(=N1)NC(=O)NS(=O)(=O)CC2=CC=CC=C2C(=O)OC)OC
InChI: InChI=1S/C16H18N4O7S/c1-25-12-8-13(26-2)18-15(17-12)19-16(22)20-28(23,24)9-10-6-4-5-7-11(10)14(21)27-3/h4-8H,9H2,1-3H3,(H2,17,18,19,20,22)
Instrument: X500R QTOF (AB Sciex LLC, MA, USA) coupled to ExionLC AD (AB Sciex LLC, MA, USA).
Instrument type: LC-ESI-QTOF
Ms type: MS2
Ion mode: NEGATIVE
Collision energy: 60 V
Fragmentation mode: CID
Ionization: ESI
Column name: AQ-C18HP 3 microm, 2.1 mm Ã— 150 mm (GL Science, Tokyo, Japan).
Retention time: 31.6 min
Precursor m/z: 409.082343
Precursor type: [M-H]-
m/z	relative intensity
41.0147	58
41.9986	739
65.0146	430
65.9985	325
82.017	84
90.0101	83
102.035	245
107.013	705
122.0361	912
124.052	114
132.0456	267
139.0389	720
154.0623	999
196.0072	233
