Mass spectrum: Desipramine; LC-ESI-QQ; MS2; ESI; POSITIVE; CID; CE 50 V; [M+H]+
Name: Desipramine
Class: Non-natural product
Formula: C18H22N2
Exact mass: 266.17829
SMILES: CNCCCN1C2=CC=CC=C2CCC3=CC=CC=C31
InChI: InChI=1S/C18H22N2/c1-19-13-6-14-20-17-9-4-2-7-15(17)11-12-16-8-3-5-10-18(16)20/h2-5,7-10,19H,6,11-14H2,1H3
Instrument: LCMS-8040 coupled to Nexera XR (Shimadzu, Kyoto, Japan).
Instrument type: LC-ESI-QQ
Ms type: MS2
Ion mode: POSITIVE
Collision energy: 50 V
Fragmentation mode: CID
Ionization: ESI
Column name: InertSustain C18 ID 2.1 microm, 2.1 x 100 mm (GL Science, Tokyo, Japan).
Retention time: 8.466 min
Precursor m/z: 267.185567
Precursor type: [M+H]+
m/z	relative intensity
30.4	33
41.3	47
42.4	12
44.3	999
56.2	72
57.2	252
70.3	12
72.2	341
77.3	16
89.3	12
91.3	58
118.1	18
144.2	12
152.2	15
165.2	37
167.1	64
179.9	27
191.2	35
192.2	156
193.1	255
194.1	29
206.0	19
207.0	11
