Mass spectrum: Fenhexamid; LC-ESI-QTOF; MS2; [M+H]+; CID; CE 60V
Name: Fenhexamid
Class: Non-natural product
Formula: C14H17Cl2NO2
Exact mass: 301.063634
SMILES: CC1(CCCCC1)C(=O)NC2=C(C(=C(C=C2)O)Cl)Cl
InChI: InChI=1S/C14H17Cl2NO2/c1-14(7-3-2-4-8-14)13(19)17-9-5-6-10(18)12(16)11(9)15/h5-6,18H,2-4,7-8H2,1H3,(H,17,19)
Instrument: X500R QTOF (AB Sciex LLC, MA, USA) coupled to ExionLC AD (AB Sciex LLC, MA, USA).
Instrument type: LC-ESI-QTOF
Ms type: MS2
Ion mode: POSITIVE
Collision energy: 60 V
Fragmentation mode: CID
Ionization: ESI
Column name: AQ-C18HP 3 microm, 2.1 mm Ã— 150 mm (GL Science, Tokyo, Japan).
Retention time: 33.3 min
Precursor m/z: 302.070911
Precursor type: [M+H]+
m/z	relative intensity
41.038	36
55.0541	999
79.042	50
80.0502	50
97.1008	173
114.0099	48
143.0134	408
