Mass spectrum: S-Ethyl 2-methoxybenzothioate; GC-FI-TOF; MS; POSITIVE; 10 kV
Name: S-Ethyl 2-methoxybenzothioate
Class: Non-natural compound
Formula: C10H12O2S
Exact mass: 196.055801
SMILES: COc1ccccc1C(=O)SCC
InChI: InChI=1S/C10H12O2S/c1-3-13-10(11)8-6-4-5-7-9(8)12-2/h4-7H,3H2,1-2H3
Instrument: JMS-T100GCV (JEOL, Akishima, Japan) coupled to Agilent 7890A (Santa Clara, CA, USA) gas chromatograph.
Instrument type: GC-FI-TOF
Ms type: MS
Ion mode: POSITIVE
Ionization: FI
Ionization energy: 10 kV
Column name: HP-5MS 30x0.25 0.25microm 19091S-4 (Agilent, Wilmington, USA) with the length 30.0 m, I.D. 0.25 mm, and thickness 0.25 micrometer.
Retention time: 8.88 min
m/z	relative intensity
135.04	67
136.044	7
196.056	999
197.059	116
198.053	51
