Mass spectrum: Cyproheptadine; LC-ESI-QQ; MS2; ESI; POSITIVE; CID; CE 50 V; [M+H]+
Name: Cyproheptadine
Class: Non-natural product
Formula: C21H21N
Exact mass: 287.167395
SMILES: CN1CCC(=C2C3=CC=CC=C3C=CC4=CC=CC=C42)CC1
InChI: InChI=1S/C21H21N/c1-22-14-12-18(13-15-22)21-19-8-4-2-6-16(19)10-11-17-7-3-5-9-20(17)21/h2-11H,12-15H2,1H3
Instrument: LCMS-8040 coupled to Nexera XR (Shimadzu, Kyoto, Japan).
Instrument type: LC-ESI-QQ
Ms type: MS2
Ion mode: POSITIVE
Collision energy: 50 V
Fragmentation mode: CID
Ionization: ESI
Column name: InertSustain C18 ID 2.1 microm, 2.1 x 100 mm (GL Science, Tokyo, Japan).
Retention time: 9.411 min
Precursor m/z: 288.174672
Precursor type: [M+H]+
m/z	relative intensity
30.3	15
39.3	68
40.3	13
41.4	123
42.3	271
43.3	17
44.3	261
53.2	13
54.3	26
55.3	69
56.4	19
58.3	300
65.2	55
67.2	365
68.3	48
69.2	31
70.3	136
71.4	13
77.2	56
78.3	12
79.3	62
80.2	110
81.2	225
82.3	647
84.2	12
91.2	385
94.2	153
96.2	665
97.2	62
102.4	13
110.1	34
114.3	12
115.2	334
117.2	80
127.1	56
128.2	265
129.2	50
141.2	131
144.3	13
152.1	185
153.2	100
164.0	17
165.1	475
166.9	26
176.1	15
178.1	231
179.2	34
189.1	454
190.1	203
191.2	483
194.4	19
196.2	17
202.1	817
203.1	284
204.2	88
213.1	23
215.1	999
216.1	63
217.0	13
226.0	32
227.0	21
228.1	114
229.2	81
239.1	64
240.3	35
241.1	56
243.4	17
287.4	13
288.1	14
