Mass spectrum: Fenhexamid; LC-ESI-QTOF; MS2; [M-H]-; isotopolog ion m/z 302.053407; CID; CE 20V
Name: Fenhexamid
Class: Non-natural product
Formula: C14H17Cl2NO2
Exact mass: 301.063634
SMILES: CC1(CCCCC1)C(=O)NC2=C(C(=C(C=C2)O)Cl)Cl
InChI: InChI=1S/C14H17Cl2NO2/c1-14(7-3-2-4-8-14)13(19)17-9-5-6-10(18)12(16)11(9)15/h5-6,18H,2-4,7-8H2,1H3,(H,17,19)
Instrument: X500R QTOF (AB Sciex LLC, MA, USA) coupled to ExionLC AD (AB Sciex LLC, MA, USA).
Instrument type: LC-ESI-QTOF
Ms type: MS2
Ion mode: NEGATIVE
Collision energy: 20 V
Fragmentation mode: CID
Ionization: ESI
Column name: AQ-C18HP 3 microm, 2.1 mm Ã— 150 mm (GL Science, Tokyo, Japan).
Retention time: 33.3 min
Precursor m/z: 302.053407
Precursor type: [M-H]-
m/z	relative intensity
264.0805	237
266.0762	186
302.0533	999
