Mass spectrum: Flunitrazepam; LC-ESI-QQ; MS2; ESI; POSITIVE; CID; CE 30 V; [M+H]+
Name: Flunitrazepam
Class: Non-natural product
Formula: C16H12FN3O3
Exact mass: 313.086258
SMILES: CN1C(=O)CN=C(C2=C1C=CC(=C2)[N+](=O)[O-])C3=CC=CC=C3F
InChI: InChI=1S/C16H12FN3O3/c1-19-14-7-6-10(20(22)23)8-12(14)16(18-9-15(19)21)11-4-2-3-5-13(11)17/h2-8H,9H2,1H3
Instrument: LCMS-8040 coupled to Nexera XR (Shimadzu, Kyoto, Japan).
Instrument type: LC-ESI-QQ
Ms type: MS2
Ion mode: POSITIVE
Collision energy: 30 V
Fragmentation mode: CID
Ionization: ESI
Column name: InertSustain C18 ID 2.1 microm, 2.1 x 100 mm (GL Science, Tokyo, Japan).
Retention time: 8.703 min
Precursor m/z: 314.093535
Precursor type: [M+H]+
m/z	relative intensity
118.3	16
119.2	43
123.2	15
145.1	11
147.2	18
165.2	22
183.2	23
191.1	11
197.2	31
198.1	20
199.1	14
205.2	19
210.1	70
211.1	111
212.2	42
213.2	23
219.3	17
221.2	27
222.2	13
224.2	14
225.2	20
227.2	33
228.2	13
238.2	16
239.2	264
240.2	129
257.2	17
268.2	999
270.2	21
286.1	24
314.2	183
