Mass spectrum: S-Ethyl 2-methylbenzothioate; GC-EI-TOF; MS; POSITIVE; 70 V
Name: S-Ethyl 2-methylbenzothioate
Class: Non-natural compound
Formula: C10H12OS
Exact mass: 180.060886
SMILES: CCSC(=O)C1=CC=CC=C1C
InChI: InChI=1S/C10H12OS/c1-3-12-10(11)9-7-5-4-6-8(9)2/h4-7H,3H2,1-2H3
Instrument: JMS-T100GCV (JEOL, Akishima, Japan) coupled to Agilent 7890A (Santa Clara, CA, USA) gas chromatograph.
Instrument type: GC-EI-TOF
Ms type: MS
Ion mode: POSITIVE
Ionization: EI
Column name: ZB-1MS 7HM-G011-11 sn:313446 (Agilent, Wilmington, USA) with the length 30.0 m, I.D. 0.32 mm, and thickness 0.25 micrometer.
Retention time: 8.05 min
m/z	relative intensity
26.016	3
27.024	25
28.007	7
28.031	2
29.039	12
31.99	4
34.996	8
38.016	4
39.024	47
40.03	4
41.04	13
44.98	15
45.988	3
50.016	8
51.024	21
52.031	5
53.039	2
57.988	3
58.996	5
60.004	2
61.011	8
62.016	10
63.024	40
64.031	13
65.04	137
66.043	8
68.981	3
74.016	3
75.024	3
76.031	2
77.039	10
78.047	3
79.055	3
89.04	51
90.047	24
91.055	410
91.24	1
91.484	1
91.53	1
92.059	32
118.042	5
119.05	999
119.59	3
120.053	93
120.352	1
120.795	1
121.012	5
121.056	6
123.028	2
134.02	2
151.022	13
180.061	12
181.065	2
