Mass spectrum: Amlodipine; LC-ESI-QQ; MS2; ESI; NEGATIVE; CID; CE 30 V; [M-H]-
Name: Amlodipine
Class: Non-natural product
Formula: C20H25ClN2O5
Exact mass: 408.145193
SMILES: CCOC(=O)C1=C(NC(=C(C1C2=CC=CC=C2Cl)C(=O)OC)C)COCCN
InChI: InChI=1S/C20H25ClN2O5/c1-4-28-20(25)18-15(11-27-10-9-22)23-12(2)16(19(24)26-3)17(18)13-7-5-6-8-14(13)21/h5-8,17,23H,4,9-11,22H2,1-3H3
Instrument: LCMS-8040 coupled to Nexera XR (Shimadzu, Kyoto, Japan).
Instrument type: LC-ESI-QQ
Ms type: MS2
Ion mode: NEGATIVE
Collision energy: 30 V
Fragmentation mode: CID
Ionization: ESI
Column name: InertSustain C18 ID 2.1 microm, 2.1 x 100 mm (GL Science, Tokyo, Japan).
Retention time: 6.176 min
Precursor m/z: 407.137916
Precursor type: [M-H]-
m/z	relative intensity
35.2	999
89.0	34
104.9	34
105.9	17
110.9	305
116.2	87
119.4	33
120.2	72
126.2	34
131.0	33
132.2	34
133.1	65
143.8	51
148.9	34
152.1	32
160.1	34
162.2	90
163.2	91
164.5	21
166.1	49
174.2	34
175.8	34
177.9	165
179.1	46
187.1	17
189.7	34
192.1	96
206.8	128
219.6	42
222.0	291
223.1	68
227.5	17
234.1	34
235.8	70
237.1	358
240.9	17
243.0	34
249.0	66
251.1	263
266.4	55
267.2	40
281.0	34
293.6	34
295.2	404
299.9	68
301.1	34
313.1	51
325.2	34
339.0	33
360.2	17
361.0	46
374.2	17
