Mass spectrum: (Z)-Dimethomorph; LC-ESI-QTOF; MS2; [M+H]+; CID; CE 50V
Name: (Z)-Dimethomorph
Class: Non-natural product
Formula: C21H22ClNO4
Exact mass: 387.123736
SMILES: COC1=C(C=C(C=C1)/C(=C\C(=O)N2CCOCC2)/C3=CC=C(C=C3)Cl)OC
InChI: InChI=1S/C21H22ClNO4/c1-25-19-8-5-16(13-20(19)26-2)18(15-3-6-17(22)7-4-15)14-21(24)23-9-11-27-12-10-23/h3-8,13-14H,9-12H2,1-2H3/b18-14-
Instrument: X500R QTOF (AB Sciex LLC, MA, USA) coupled to ExionLC AD (AB Sciex LLC, MA, USA).
Instrument type: LC-ESI-QTOF
Ms type: MS2
Ion mode: POSITIVE
Collision energy: 50 V
Fragmentation mode: CID
Ionization: ESI
Column name: TSKgel ODS-100S 5 um, 2.1 mm Ã— 250 mm, TOSOH
Retention time: 14.7 min
Precursor m/z: 388.131013
Precursor type: [M+H]+
m/z	relative intensity
70.0285	69
125.0151	126
137.0596	95
138.9947	348
165.0546	999
195.0808	81
215.026	118
223.0754	125
227.026	97
238.0989	160
242.0494	401
243.021	185
258.0444	348
273.068	275
301.063	213
