Mass spectrum: 6-(4-{[2-(dodecanoylamino)ethyl]amino}-4-oxobutanamido)-N,N-dimethylhexan-1-amine N-oxide; ESI-QTOF; MS2; ESI; [M+H]+; CE 60 V
Name: 6-(4-{[2-(dodecanoylamino)ethyl]amino}-4-oxobutanamido)-N,N-dimethylhexan-1-amine N-oxide
Name: AAO 11-2-2-6
Class: Non-natural product
Formula: C26H52N4O4
Exact mass: 484.398840
SMILES: O=C(NCCNC(=O)CCCCCCCCCCC)CCC(=O)NCCCCCC[N+]([O-])(C)C
InChI: InChI=1S/C26H52N4O4/c1-4-5-6-7-8-9-10-11-14-17-24(31)28-21-22-29-26(33)19-18-25(32)27-20-15-12-13-16-23-30(2,3)34/h4-23H2,1-3H3,(H,27,32)(H,28,31)(H,29,33)
Instrument: X500R QTOF (AB Sciex LLC, MA, USA)
Instrument type: ESI-QTOF
Ms type: MS2
Ion mode: POSITIVE
Collision energy: 60 V
Fragmentation mode: CID
Ionization: ESI
Precursor m/z: 485.406117 
Precursor type: [M+H]+
m/z	relative intensity
44.04910	21
55.05385	39
57.06945	11
58.06478	118
72.04396	18
81.06941	8
83.08506	30
84.04393	18
98.05954	19
98.09591	21
100.03884	161
100.11151	38
112.03879	18
114.12714	17
125.07043	80
126.05442	116
143.08091	91
182.11697	86
226.21553	999
