Mass spectrum: Nordiazepam; LC-ESI-QQ; MS2; ESI; POSITIVE; CID; CE 50 V; [M+H]+
Name: Nordiazepam
Class: Non-natural product
Formula: C15H11ClN2O
Exact mass: 270.055983
SMILES: C1C(=O)NC2=C(C=C(C=C2)Cl)C(=N1)C3=CC=CC=C3
InChI: InChI=1S/C15H11ClN2O/c16-11-6-7-13-12(8-11)15(17-9-14(19)18-13)10-4-2-1-3-5-10/h1-8H,9H2,(H,18,19)
Instrument: LCMS-8040 coupled to Nexera XR (Shimadzu, Kyoto, Japan).
Instrument type: LC-ESI-QQ
Ms type: MS2
Ion mode: POSITIVE
Collision energy: 50 V
Fragmentation mode: CID
Ionization: ESI
Column name: InertSustain C18 ID 2.1 microm, 2.1 x 100 mm (GL Science, Tokyo, Japan).
Retention time: 9.417 min
Precursor m/z: 271.06326
Precursor type: [M+H]+
m/z	relative intensity
28.3	37
30.3	13
41.2	22
51.2	59
63.3	24
65.2	272
73.1	17
75.2	86
76.1	35
77.2	999
78.3	190
79.4	17
88.2	21
89.3	230
90.1	63
91.2	986
99.1	18
100.1	22
101.2	11
102.2	312
103.2	275
104.2	924
105.2	474
111.1	260
112.2	43
113.2	135
114.1	86
116.2	151
117.2	88
123.1	44
124.0	65
127.2	193
129.2	205
130.2	177
133.1	12
136.1	61
137.0	23
138.2	260
140.1	520
150.0	30
151.2	134
152.2	95
153.3	23
154.0	36
156.0	16
158.0	61
163.1	157
164.2	178
165.1	543
166.2	23
167.2	15
176.0	17
178.2	70
179.2	165
180.1	483
181.3	31
190.1	370
191.1	129
192.0	86
193.2	37
199.2	33
200.0	15
201.1	20
206.2	218
207.2	154
208.1	150
213.9	39
215.0	17
216.2	13
217.1	31
219.1	12
225.5	20
241.1	61
242.0	17
271.5	33
