Mass spectrum: 6-(4-{[5-(tetradecanoylamino)pentyl]amino}-4-oxobutanamido)-N,N-dimethylhexan-1-amine N-oxide; ESI-QTOF; MS2; ESI; [M+H]+; CE 60 V
Name: 6-(4-{[5-(tetradecanoylamino)pentyl]amino}-4-oxobutanamido)-N,N-dimethylhexan-1-amine N-oxide
Name: AAO 13-5-2-6
Class: Non-natural product
Formula: C31H62N4O4
Exact mass: 554.477090
SMILES: [O-][N+](C)(C)CCCCCCNC(=O)CCC(=O)NCCCCCNC(=O)CCCCCCCCCCCCC
InChI: InChI=1S/C31H62N4O4/c1-4-5-6-7-8-9-10-11-12-13-17-22-29(36)32-26-19-16-20-27-34-31(38)24-23-30(37)33-25-18-14-15-21-28-35(2,3)39/h4-28H2,1-3H3,(H,32,36)(H,33,37)(H,34,38)
Instrument: X500R QTOF (AB Sciex LLC, MA, USA)
Instrument type: ESI-QTOF
Ms type: MS2
Ion mode: POSITIVE
Collision energy: 60 V
Fragmentation mode: CID
Ionization: ESI
Precursor m/z: 555.484367 
Precursor type: [M+H]+
m/z	relative intensity
30.03375	34
41.03853	20
42.03375	13
43.05414	16
44.04940	15
46.06505	9
55.05419	103
57.06983	55
58.06514	510
67.05419	11
69.06990	75
71.08549	50
72.04439	35
81.06993	69
82.02875	20
83.08553	143
84.04442	58
84.08081	90
85.10117	57
86.09652	899
95.08556	105
97.10118	29
98.09651	139
100.03943	874
100.07576	29
100.11210	247
103.12301	31
109.10121	65
111.11692	28
112.03942	100
112.11214	36
114.09141	14
114.12773	101
123.11687	38
126.12782	56
128.10706	17
128.14348	94
137.13260	23
140.07075	26
140.10713	30
154.12280	39
156.13837	30
157.13367	34
161.16503	32
167.11810	59
168.10211	252
181.13374	22
182.11776	734
184.14444	86
185.12862	476
211.20578	251
227.17573	60
228.23231	268
296.29502	999
313.32151	203
395.32705	70
476.42119	73
