Mass spectrum: Thidiazuron; LC-ESI-QTOF; MS2; [M+H]+; CID; CE 60V
Name: Thidiazuron
Class: Non-natural product
Formula: C9H8N4OS
Exact mass: 220.041882
SMILES: C1=CC=C(C=C1)NC(=O)NC2=CN=NS2
InChI: InChI=1S/C9H8N4OS/c14-9(12-8-6-10-13-15-8)11-7-4-2-1-3-5-7/h1-6H,(H2,11,12,14)
Instrument: X500R QTOF (AB Sciex LLC, MA, USA) coupled to ExionLC AD (AB Sciex LLC, MA, USA).
Instrument type: LC-ESI-QTOF
Ms type: MS2
Ion mode: POSITIVE
Collision energy: 60 V
Fragmentation mode: CID
Ionization: ESI
Column name: AQ-C18HP 3 microm, 2.1 mm Ã— 150 mm (GL Science, Tokyo, Japan).
Retention time: 21.5 min
Precursor m/z: 221.049159
Precursor type: [M+H]+
m/z	relative intensity
30.0337	678
43.029	113
44.9792	398
45.987	75
46.9947	335
51.0228	341
59.99	496
65.0388	222
71.9902	162
72.9983	150
77.0386	999
85.9694	141
92.05	222
102.0119	330
