Mass spectrum: Fenoxaprop-ethyl; LC-ESI-QTOF; MS2; [M+H]+; CID; CE 30V
Name: Fenoxaprop-ethyl
Class: Non-natural product
Formula: C18H16ClNO5
Exact mass: 361.0717
SMILES: CCOC(=O)C(C)OC1=CC=C(C=C1)OC2=NC3=C(O2)C=C(C=C3)Cl
InChI: InChI=1S/C18H16ClNO5/c1-3-22-17(21)11(2)23-13-5-7-14(8-6-13)24-18-20-15-9-4-12(19)10-16(15)25-18/h4-11H,3H2,1-2H3
Instrument: X500R QTOF (AB Sciex LLC, MA, USA) coupled to ExionLC AD (AB Sciex LLC, MA, USA).
Instrument type: LC-ESI-QTOF
Ms type: MS2
Ion mode: POSITIVE
Collision energy: 30 V
Fragmentation mode: CID
Ionization: ESI
Column name: TSKgel ODS-100S 5 um, 2.1 mm Ã— 250 mm, TOSOH
Retention time: 16.1 min
Precursor m/z: 362.078977
Precursor type: [M+H]+
m/z	relative intensity
91.054	197
93.0696	41
103.0541	125
119.0488	431
120.0567	102
121.0644	489
167.9848	160
209.083	148
232.0522	85
238.0498	325
242.0367	190
244.0507	602
260.0468	593
261.0189	221
262.0266	175
270.0316	317
288.0415	999
289.0463	102
334.0476	165
362.0789	349
