Mass spectrum: (E)-Dimethomorph; LC-ESI-QTOF; MS2; [M+H]+; CID; CE 60V
Name: (E)-Dimethomorph
Class: Non-natural product
Formula: C21H22ClNO4
Exact mass: 387.123736
SMILES: COC1=C(C=C(C=C1)/C(=C/C(=O)N2CCOCC2)/C3=CC=C(C=C3)Cl)OC
InChI: InChI=1S/C21H22ClNO4/c1-25-19-8-5-16(13-20(19)26-2)18(15-3-6-17(22)7-4-15)14-21(24)23-9-11-27-12-10-23/h3-8,13-14H,9-12H2,1-2H3/b18-14+
Instrument: X500R QTOF (AB Sciex LLC, MA, USA) coupled to ExionLC AD (AB Sciex LLC, MA, USA).
Instrument type: LC-ESI-QTOF
Ms type: MS2
Ion mode: POSITIVE
Collision energy: 60 V
Fragmentation mode: CID
Ionization: ESI
Column name: TSKgel ODS-100S 5 um, 2.1 mm Ã— 250 mm, TOSOH
Retention time: 14.4 min
Precursor m/z: 388.131013
Precursor type: [M+H]+
m/z	relative intensity
42.0337	40
70.0284	116
77.0386	80
79.0538	57
94.0418	52
109.0648	58
110.9996	74
121.0286	45
122.0362	143
125.0153	237
137.0599	172
138.9949	458
152.0621	196
165.055	999
166.0779	74
167.0856	161
176.0622	38
177.0699	79
178.0779	113
180.0567	41
187.0312	84
194.0723	62
195.0807	209
199.0309	220
212.0396	73
215.0257	338
223.0754	236
227.0261	424
228.0326	91
229.0416	86
235.0754	75
238.0983	133
241.0417	79
242.0495	591
243.0209	406
257.0362	107
258.0443	276
273.0675	72
