Mass spectrum: Fenhexamid; LC-ESI-QTOF; MS; POSITIVE
Name: Fenhexamid
Class: Non-natural product
Formula: C14H17Cl2NO2
Exact mass: 301.063634
SMILES: CC1(CCCCC1)C(=O)NC2=C(C(=C(C=C2)O)Cl)Cl
InChI: InChI=1S/C14H17Cl2NO2/c1-14(7-3-2-4-8-14)13(19)17-9-5-6-10(18)12(16)11(9)15/h5-6,18H,2-4,7-8H2,1H3,(H,17,19)
Instrument: X500R QTOF (AB Sciex LLC, MA, USA) coupled to ExionLC AD (AB Sciex LLC, MA, USA).
Instrument type: LC-ESI-QTOF
Ms type: MS
Ion mode: POSITIVE
Ionization: ESI
Column name: AQ-C18HP 3 microm, 2.1 mm Ã— 150 mm (GL Science, Tokyo, Japan).
Retention time: 33.3 min
m/z	relative intensity
302.0708	999
303.0742	234
304.068	734
305.0713	158
306.0655	172
307.0684	29
