Mass spectrum: 2-Allyl-6-methoxybenzonitrile; GC-EI-TOF; MS; POSITIVE; 70 V
Name: 2-Allyl-6-methoxybenzonitrile
Class: Non-natural compound
Formula: C11H11NO
Exact mass: 173.08406
SMILES: COc1cccc(CC=C)c1C#N
InChI: InChI=1S/C11H11NO/c1-3-5-9-6-4-7-11(13-2)10(9)8-12/h3-4,6-7H,1,5H2,2H3
Instrument: JMS-T100GCV (JEOL, Akishima, Japan) coupled to Agilent 7890A (Santa Clara, CA, USA) gas chromatograph.
Instrument type: GC-EI-TOF
Ms type: MS
Ion mode: POSITIVE
Ionization: EI
Column name: HP-5 19091J-413 USD364547H (Agilent, Wilmington, USA) with the length 30.0 m, I.D. 0.32 mm, and thickness 0.25 micrometer.
Retention time: 8.51 min
m/z	relative intensity
26.016	12
27.024	71
28.007	12
28.02	10
29.004	9
30.035	7
31.991	7
37.009	11
38.016	40
39.024	209
39.075	2
40.03	15
41.04	45
42.036	8
43.019	4
46.03	8
50.016	75
51.024	148
51.081	2
52.031	40
53.004	9
53.04	19
54.011	2
54.036	3
55.019	21
57.528	3
58.53	10
61.009	17
62.016	79
63.024	124
63.086	1
64.021	43
65.039	46
66.012	3
66.036	13
67.014	1
67.043	2
68.027	4
70.53	9
71.033	3
71.538	8
73.008	4
74.017	36
75.023	74
76.031	121
76.095	2
77.04	287
77.107	3
78.045	54
79.051	8
80.015	6
80.052	2
85.008	3
86.016	10
87.02	20
88.023	47
89.039	135
89.108	2
90.04	41
91.055	61
92.027	3
92.056	7
98.016	3
99.013	10
100.026	13
101.039	55
102.046	118
102.12	2
103.054	340
104.053	86
105.036	11
106.037	2
107.05	2
112.023	3
113.04	25
114.043	51
115.055	342
115.191	4
116.06	257
117.023	11
117.064	82
118.066	31
119.048	5
120.047	2
121.065	3
126.045	5
127.054	87
127.143	1
128.06	201
129.068	108
130.067	189
130.233	1
131.051	56
132.048	28
133.057	4
139.043	4
140.051	115
140.146	1
141.057	43
142.066	238
143.074	540
143.604	1
144.081	285
144.598	1
145.07	44
146.062	57
147.076	13
154.066	237
154.244	1
155.052	75
156.05	31
157.059	33
158.061	130
159.065	15
170.061	8
171.069	4
172.076	262
172.205	5
173.084	999
173.735	3
174.088	118
174.666	2
175.09	9
