Mass spectrum: 6-(4-{[2-(decanoylamino)ethyl]amino}-4-oxobutanamido)-N,N-dimethylhexan-1-amine N-oxide; ESI-QTOF; MS2; ESI; [M-H]-; CE 60 V
Name: 6-(4-{[2-(decanoylamino)ethyl]amino}-4-oxobutanamido)-N,N-dimethylhexan-1-amine N-oxide
Name: AAO 9-2-2-6
Class: Non-natural product
Formula: C24H48N4O4
Exact mass: 456.367540
SMILES: O=C(NCCNC(=O)CCCCCCCCC)CCC(=O)NCCCCCC[N+]([O-])(C)C
InChI: InChI=1S/C24H48N4O4/c1-4-5-6-7-8-9-12-15-22(29)26-19-20-27-24(31)17-16-23(30)25-18-13-10-11-14-21-28(2,3)32/h4-21H2,1-3H3,(H,25,30)(H,26,29)(H,27,31)
Instrument: X500R QTOF (AB Sciex LLC, MA, USA)
Instrument type: ESI-QTOF
Ms type: MS2
Ion mode: NEGATIVE
Collision energy: 60 V
Fragmentation mode: CID
Ionization: ESI
Precursor m/z: 455.360263 
Precursor type: [M-H]-
m/z	relative intensity
41.99837	190
55.01874	12
70.02963	56
72.04527	18
82.02967	9
84.04525	12
85.04050	13
95.06123	9
97.04048	68
98.02459	999
101.07185	36
111.05608	8
112.04014	24
113.07178	75
115.05110	8
115.08745	21
122.07214	44
123.05616	54
140.08270	72
141.06676	257
152.10784	288
153.12815	41
154.12344	10
158.09324	23
162.09226	26
170.15474	164
179.11872	140
180.10278	536
181.13428	24
182.11842	16
184.17039	146
196.17036	33
209.12926	24
211.18130	50
213.19697	795
240.17147	23
