Mass spectrum: (((((1R,4S)-Bicyclo[2.2.1]heptan-2-yl)methyl)thio)methyl)diphenylsilane; GC-EI-TOF; MS; POSITIVE; 70 V
Name: (((((1R,4S)-Bicyclo[2.2.1]heptan-2-yl)methyl)thio)methyl)diphenylsilane
Class: Non-natural compound
Formula: C21H26SSi
Exact mass: 338.152448
SMILES: c1ccccc1[SiH](CSCC1C[C@@H]2C[C@H]1CC2)c1ccccc1
InChI: InChI=1S/C21H26SSi/c1-3-7-20(8-4-1)23(21-9-5-2-6-10-21)16-22-15-19-14-17-11-12-18(19)13-17/h1-10,17-19,23H,11-16H2/t17-,18+,19?/m0/s1
Instrument: JMS-T100GCV (JEOL, Akishima, Japan) coupled to Agilent 7890A (Santa Clara, CA, USA) gas chromatograph.
Instrument type: GC-EI-TOF
Ms type: MS
Ion mode: POSITIVE
Ionization: EI
Column name: HP-5 19091J-413 USD364547H (Agilent, Wilmington, USA) with the length 30.0 m, I.D. 0.32 mm, and thickness 0.25 micrometer.
Retention time: 12.37 min
m/z	relative intensity
27.024	14
28.006	20
28.031	2
29.039	22
31.99	7
39.024	34
40.031	6
41.04	119
41.093	1
42.045	5
43.001	5
43.055	17
44.98	8
46.996	4
51.024	10
52.032	4
52.985	39
53.04	32
53.988	3
54.047	11
55.001	6
55.055	92
56.059	4
61.012	6
65.04	35
66.047	52
67.001	7
67.056	278
68.061	21
69.071	5
73.012	3
74.973	6
76.986	4
77.04	50
78.047	19
79.001	35
79.056	96
80.004	4
80.063	44
81.017	5
81.071	42
82.075	3
85.012	4
89.04	5
90.048	4
91.056	243
91.19	1
92.06	22
93.017	23
93.071	31
94.019	3
94.078	7
95.087	12
103.002	24
104.007	6
105.017	344
105.072	10
106.019	40
106.078	2
107.024	13
107.087	22
108.032	2
108.094	37
109.103	78
110.106	6
115.056	5
117.018	6
117.072	3
118.024	5
119.033	30
120.038	7
121.047	5
122.11	3
128.064	3
129.017	11
130.022	2
131.033	11
136.989	49
137.995	16
139.003	14
140.002	2
140.067	4
141.074	7
143.033	3
145.049	2
148.989	2
149.997	4
151.005	66
152.012	512
152.556	1
152.622	1
153.015	87
154.01	44
154.08	4
155.032	33
155.09	100
156.035	6
156.094	11
157.048	7
157.087	5
165.02	12
165.072	25
166.024	2
166.077	6
167.032	5
167.087	9
169.049	4
179.034	8
180.041	38
181.049	280
181.317	4
182.052	61
183.064	999
183.548	2
183.735	3
184.067	175
184.692	2
185.064	44
185.667	1
185.731	1
186.066	5
191.035	2
193.049	13
194.054	6
195.064	149
195.194	4
196.071	119
197.079	183
198.081	34
199.079	8
213.021	4
213.11	4
214.028	3
215.036	298
216.038	53
217.034	26
218.035	4
227.036	8
228.041	2
229.052	157
230.058	212
231.062	67
232.06	22
233.064	5
243.067	3
245.082	5
247.098	6
261.113	2
262.118	2
290.148	4
291.154	2
323.129	62
324.132	17
325.129	7
337.145	3
338.152	86
339.155	24
340.152	9
