Mass spectrum: 5-(4-{[2-(tetradecanoylamino)ethyl]amino}-4-oxobutanamido)-N,N-dimethylpentan-1-amine N-oxide; ESI-QTOF; MS2; ESI; [M+H]+; CE 60 V
Name: 5-(4-{[2-(tetradecanoylamino)ethyl]amino}-4-oxobutanamido)-N,N-dimethylpentan-1-amine N-oxide
Name: AAO 13-2-2-5
Class: Non-natural product
Formula: C27H54N4O4
Exact mass: 498.41449
SMILES: O=C(NCCNC(=O)CCCCCCCCCCCCC)CCC(=O)NCCCCC[N+]([O-])(C)C
InChI: InChI=1S/C27H54N4O4/c1-4-5-6-7-8-9-10-11-12-13-15-18-25(32)29-22-23-30-27(34)20-19-26(33)28-21-16-14-17-24-31(2,3)35/h4-24H2,1-3H3,(H,28,33)(H,29,32)(H,30,34)
Instrument: X500R QTOF (AB Sciex LLC, MA, USA)
Instrument type: ESI-QTOF
Ms type: MS2
Ion mode: POSITIVE
Collision energy: 60 V
Fragmentation mode: CID
Ionization: ESI
Precursor m/z: 499.42177 
Precursor type: [M+H]+
m/z	relative intensity
39.02260	2
41.03824	11
43.05388	5
44.04913	16
57.06950	10
58.06477	56
69.06949	23
71.08511	6
72.04401	10
81.06948	4
82.02836	6
84.04403	20
84.08040	24
85.10075	5
86.09604	38
95.08511	7
98.05964	13
98.09601	6
99.05488	9
100.03893	161
112.03890	26
112.07527	9
114.12730	11
125.07054	103
126.05454	95
140.10651	32
142.09704	6
143.08104	71
167.11747	8
168.10153	161
185.12802	15
211.14373	8
253.26323	10
254.24715	999
