Mass spectrum: Imazosulfuron; LC-ESI-QTOF; MS2; [M+H]+; CID; CE 50V
Name: Imazosulfuron
Class: Non-natural product
Formula: C14H13ClN6O5S
Exact mass: 412.035666
SMILES: COC1=CC(=NC(=N1)NC(=O)NS(=O)(=O)C2=C(N=C3N2C=CC=C3)Cl)OC
InChI: InChI=1S/C14H13ClN6O5S/c1-25-9-7-10(26-2)18-13(17-9)19-14(22)20-27(23,24)12-11(15)16-8-5-3-4-6-21(8)12/h3-7H,1-2H3,(H2,17,18,19,20,22)
Instrument: X500R QTOF (AB Sciex LLC, MA, USA) coupled to ExionLC AD (AB Sciex LLC, MA, USA).
Instrument type: LC-ESI-QTOF
Ms type: MS2
Ion mode: POSITIVE
Collision energy: 50 V
Fragmentation mode: CID
Ionization: ESI
Column name: AQ-C18HP 3 microm, 2.1 mm Ã— 150 mm (GL Science, Tokyo, Japan).
Retention time: 31.9 min
Precursor m/z: 413.042943
Precursor type: [M+H]+
m/z	relative intensity
57.0447	53
78.0335	200
83.0238	88
98.9996	154
100.0396	463
124.0508	164
139.0056	287
139.0381	183
139.0495	143
141.0538	58
151.0058	127
152.0135	717
153.0214	585
156.077	779
178.0166	482
182.0557	169
218.023	157
231.995	277
257.9739	999
