Mass spectrum: S-Ethyl 4-(4'-tert-butylphenyl)benzothioate; GC-EI-TOF; MS; POSITIVE; 70 V
Name: S-Ethyl 4-(4'-tert-butylphenyl)benzothioate
Class: Non-natural compound
Formula: C19H22OS
Exact mass: 298.139136
SMILES: CC(C)(C)c1ccc(cc1)c1ccc(cc1)C(=O)SCC
InChI: InChI=1S/C19H22OS/c1-5-21-18(20)16-8-6-14(7-9-16)15-10-12-17(13-11-15)19(2,3)4/h6-13H,5H2,1-4H3
Instrument: JMS-T100GCV (JEOL, Akishima, Japan) coupled to Agilent 7890A (Santa Clara, CA, USA) gas chromatograph.
Instrument type: GC-EI-TOF
Ms type: MS
Ion mode: POSITIVE
Ionization: EI
Column name: ZB-1MS 7HM-G011-11 sn:313446 (Agilent, Wilmington, USA) with the length 30.0 m, I.D. 0.32 mm, and thickness 0.25 micrometer.
Retention time: 11.87 min
m/z	relative intensity
27.024	10
28.006	9
29.039	21
31.99	5
34.996	4
39.023	6
41.039	37
43.055	8
55.019	5
55.055	11
56.062	2
57.07	53
61.011	4
63.023	2
67.055	4
69.07	5
71.086	4
73.046	2
75.023	3
76.031	11
77.039	6
81.07	3
82.031	22
82.535	11
83.039	19
83.086	4
83.541	3
88.031	2
89.039	6
91.055	5
95.085	3
97.036	92
97.102	3
97.538	14
102.046	3
103.041	4
110.043	3
111.052	23
111.554	5
115.054	12
116.059	2
117.069	4
126.046	4
127.054	6
127.56	9
128.062	7
129.068	2
135.072	3
139.054	7
141.071	2
150.046	6
151.054	19
152.062	58
152.187	1
153.069	38
154.076	15
155.082	3
163.054	3
164.062	4
165.07	58
165.186	1
166.077	33
167.083	8
176.062	11
177.069	10
178.077	61
178.204	2
179.084	32
180.089	5
181.065	5
189.069	6
190.075	3
191.085	7
192.092	4
193.101	7
194.109	132
195.112	23
196.116	2
198.049	3
207.032	6
208.124	2
209.131	3
221.095	7
222.102	6
226.081	7
237.127	999
237.677	2
237.805	3
238.13	189
238.949	2
239.134	20
239.462	1
239.546	1
240.135	2
241.104	3
255.085	2
281.05	2
283.115	10
284.118	2
298.139	47
299.142	10
300.141	3
