Mass spectrum: Fenamidone; LC-ESI-QTOF; MS2; [M+H]+; CID; CE 10 V
Name: Fenamidone
Class: Non-natural product
Formula: C17H17N3OS
Exact mass: 311.109233
SMILES: C[C@@]1(C(=O)N(C(=N1)SC)NC2=CC=CC=C2)C3=CC=CC=C3
InChI: InChI=1S/C17H17N3OS/c1-17(13-9-5-3-6-10-13)15(21)20(16(18-17)22-2)19-14-11-7-4-8-12-14/h3-12,19H,1-2H3/t17-/m0/s1
Instrument: X500R QTOF (AB Sciex LLC, MA, USA) coupled to ExionLC AD (AB Sciex LLC, MA, USA).
Instrument type: LC-ESI-QTOF
Ms type: MS2
Ion mode: POSITIVE
Collision energy: 10 V
Fragmentation mode: CID
Ionization: ESI
Column name: TSKgel ODS-100S 5 um, 2.1 mm Ã— 250 mm, TOSOH
Retention time: 14.5 min
Precursor m/z: 312.11651
Precursor type: [M+H]+
m/z	relative intensity
92.0495	104
103.0542	97
120.0808	52
131.0493	109
165.0481	232
211.1231	120
222.0917	82
236.1179	854
239.1179	465
264.1128	902
267.0953	132
295.0904	120
312.1204	999
