Mass spectrum: (4-(((Ｄiphenylsilyl)methyl)thio)butyl)trimethylsilane; GC-EI-TOF; MS; POSITIVE; 70 V
Name: (4-(((Ｄiphenylsilyl)methyl)thio)butyl)trimethylsilane
Class: Non-natural compound
Formula: C20H30SSi2
Exact mass: 358.160675
SMILES: C[Si](C)(C)CCCCSC[SiH](c1ccccc1)c1ccccc1
InChI: InChI=1S/C20H30SSi2/c1-23(2,3)17-11-10-16-21-18-22(19-12-6-4-7-13-19)20-14-8-5-9-15-20/h4-9,12-15,22H,10-11,16-18H2,1-3H3
Instrument: JMS-T100GCV (JEOL, Akishima, Japan) coupled to Agilent 7890A (Santa Clara, CA, USA) gas chromatograph.
Instrument type: GC-EI-TOF
Ms type: MS
Ion mode: POSITIVE
Ionization: EI
Column name: HP-5 19091J-413 USD364547H (Agilent, Wilmington, USA) with the length 30.0 m, I.D. 0.32 mm, and thickness 0.25 micrometer.
Retention time: 11.85 min
m/z	relative intensity
27.024	3
28.006	41
28.985	8
29.039	10
31.001	9
31.99	16
39.024	6
41.04	9
43.001	43
44.008	16
44.981	3
45.017	97
45.071	1
46.017	6
47.014	3
51.024	6
52.985	35
53.039	3
53.989	3
55.001	11
55.056	29
57.017	9
58.025	44
59.032	106
59.095	1
60.033	8
60.958	3
61.03	4
65.04	10
67.002	7
69.017	3
70.025	4
71.033	17
72.04	17
73.048	999
73.469	3
73.751	2
74.049	79
74.973	15
75.045	33
75.98	2
76.043	2
76.988	14
77.04	18
77.992	3
78.047	9
79.001	31
79.055	3
80.005	4
81.017	6
83.032	4
85.048	20
86.056	15
87.029	2
88.99	3
89.04	4
89.996	4
90.048	4
91.005	21
91.056	206
92.007	3
92.06	17
93.017	26
93.071	2
94.019	3
95.033	4
97.049	17
99.064	18
100.07	6
101.079	3
103.002	26
104.009	8
105.017	387
105.072	8
106.019	45
107.026	19
108.032	2
112.071	2
113.08	350
114.081	38
115.004	4
115.077	13
117.02	20
117.071	2
118.024	7
119.033	56
120.038	11
121.048	23
122.05	3
128.103	38
129.019	15
129.107	6
130.024	4
130.102	2
131.035	33
132.041	8
133.047	7
134.053	2
135.064	64
136.066	9
136.989	33
137.062	3
137.994	7
138.998	4
143.034	4
145.051	20
146.054	4
147.064	4
148.991	2
149.996	3
151.005	61
152.012	307
153.016	56
154.01	26
154.077	3
155.033	32
156.035	5
157.047	6
159.065	5
160.071	3
161.08	10
165.021	8
165.072	31
166.077	7
167.033	9
167.088	9
168.039	2
169.048	4
171.064	2
175.099	37
176.1	5
177.021	3
177.096	3
179.034	8
180.041	37
181.049	302
181.317	5
181.64	1
182.052	63
183.064	999
183.549	2
183.733	3
184.067	175
184.682	2
185.064	43
186.066	5
193.051	65
193.172	1
194.054	15
195.064	197
195.194	5
195.336	1
196.071	153
197.079	263
198.081	49
198.188	1
199.079	12
205.053	4
207.067	8
209.029	10
210.031	2
211.039	2
211.094	8
213.023	3
214.025	2
215.036	123
216.039	22
217.034	11
223.043	3
225.057	2
227.037	10
228.042	3
229.052	416
229.8	1
230.057	236
231.057	69
231.177	2
232.056	21
233.059	4
241.052	3
244.075	2
257.085	2
265.088	3
285.115	15
286.117	3
287.076	6
288.079	2
295.133	5
303.106	85
304.108	24
305.104	12
306.106	2
310.157	13
311.158	4
343.138	89
344.139	28
345.136	13
346.135	3
357.151	3
358.161	64
358.314	1
359.163	20
360.159	10
361.16	3
