Mass spectrum: Tandospirone; LC-ESI-QQ; MS2; ESI; POSITIVE; CID; CE 50 V; [M+H]+
Name: Tandospirone
Class: Non-natural product
Formula: C21H29N5O2
Exact mass: 383.232105
SMILES: C1C[C@H]2C[C@@H]1[C@H]3[C@@H]2C(=O)N(C3=O)CCCCN4CCN(CC4)C5=NC=CC=N5
InChI: InChI=1S/C21H29N5O2/c27-19-17-15-4-5-16(14-15)18(17)20(28)26(19)9-2-1-8-24-10-12-25(13-11-24)21-22-6-3-7-23-21/h3,6-7,15-18H,1-2,4-5,8-14H2/t15-,16+,17+,18-
Instrument: LCMS-8040 coupled to Nexera XR (Shimadzu, Kyoto, Japan).
Instrument type: LC-ESI-QQ
Ms type: MS2
Ion mode: POSITIVE
Collision energy: 50 V
Fragmentation mode: CID
Ionization: ESI
Column name: InertSustain C18 ID 2.1 microm, 2.1 x 100 mm (GL Science, Tokyo, Japan).
Retention time: 8.928 min
Precursor m/z: 384.239382
Precursor type: [M+H]+
m/z	relative intensity
53.2	10
55.3	60
56.3	24
67.5	14
77.3	13
78.3	73
79.3	269
80.3	140
81.2	71
84.3	36
93.2	96
94.3	11
95.3	145
96.3	27
98.3	33
105.2	34
106.2	37
107.2	42
108.1	15
119.3	16
120.2	279
122.2	999
132.4	18
133.2	25
148.2	158
150.2	120
166.2	298
178.2	384
