Mass spectrum: 2-Ethyl-N-(2-nitrophenyl)aniline; GC-EI-TOF; MS; POSITIVE; 70 V
Name: 2-Ethyl-N-(2-nitrophenyl)aniline
Class: Non-natural compound
Formula: C14H14N2O2
Exact mass: 242.105520
SMILES: [O-][N+](=O)c1ccccc1Nc1ccccc1CC
InChI: InChI=1S/C14H14N2O2/c1-2-11-7-3-4-8-12(11)15-13-9-5-6-10-14(13)16(17)18/h3-10,15H,2H2,1H3
Instrument: JMS-T100GCV (JEOL, Akishima, Japan) coupled to Agilent 7890A (Santa Clara, CA, USA) gas chromatograph.
Instrument type: GC-EI-TOF
Ms type: MS
Ion mode: POSITIVE
Ionization: EI
Column name: DB-5MS 122-5532 USA360633H (Agilent, Wilmington, USA) with the length 30.0 m, I.D. 0.25 mm, and thickness 0.25 micrometer.
Retention time: 11.27 min
m/z	relative intensity
27.025	52
27.996	4
28.02	8
29.04	22
30	28
38.017	9
39.025	93
39.068	1
40.031	9
41.04	18
42.036	2
43.019	5
50.017	42
51.025	123
52.031	33
53.04	33
54.039	3
55.02	3
57.035	3
62.017	11
63.025	80
63.089	1
64.031	34
65.04	79
65.079	1
65.102	1
66.045	15
67.053	3
69.528	4
70.032	3
70.53	6
71.537	3
74.017	11
75.024	28
75.528	4
76.032	57
76.532	7
77.04	323
77.537	8
78.046	71
79.055	57
79.112	1
80.054	9
81.034	3
81.07	3
82.032	4
82.531	6
83.035	2
83.538	35
84.04	8
87.024	6
88.031	6
89.039	79
89.538	22
90.042	75
90.543	21
91.054	83
92.054	21
93.059	12
94.066	3
95.538	13
96.04	4
96.545	18
97.046	8
97.547	2
99.024	2
100.03	2
101.04	17
102.047	31
102.539	2
103.051	74
103.546	17
104.053	25
105.07	13
106.066	21
107.054	7
108.048	3
109.061	3
113.04	12
114.046	11
115.055	38
116.053	19
117.059	28
118.066	32
119.07	13
120.081	9
121.07	2
125.04	4
126.048	15
127.055	35
128.055	35
129.059	12
130.066	19
131.067	8
132.07	4
137.039	3
138.047	6
139.055	67
140.053	54
141.061	17
142.065	7
143.071	7
144.077	3
145.078	3
150.048	8
151.055	37
152.062	105
153.065	40
154.067	46
155.071	14
156.072	13
157.078	11
158.085	3
159.093	2
163.055	5
164.055	15
165.069	34
166.067	111
167.074	301
168.079	149
169.08	51
170.08	10
171.092	5
176.059	4
177.06	16
178.067	72
179.073	183
180.081	999
180.692	4
181.084	362
181.697	3
182.086	97
182.707	2
183.085	26
183.718	1
184.077	6
184.202	1
185.073	5
190.066	9
191.074	38
191.202	1
192.079	72
192.209	3
193.087	118
194.096	188
195.099	79
196.068	52
197.072	164
198.077	34
199.082	4
205.077	23
206.085	91
206.216	6
206.289	1
207.092	752
207.758	3
208.098	291
208.803	2
209.104	61
210.08	34
211.085	7
212.127	2
213.067	25
214.072	7
223.088	28
224.092	7
225.102	47
226.106	11
227.082	18
228.086	5
241.096	2
242.106	890
242.663	2
242.789	3
243.11	258
243.933	2
244.113	32
244.501	1
245.117	3
