Mass spectrum: (3,5-Dimethylphenyl)dimethylsilane; GC-EI-TOF; MS; POSITIVE; 70 V
Name: (3,5-Dimethylphenyl)dimethylsilane
Class: Non-natural compound
Formula: C10H16Si
Exact mass: 164.102127
SMILES: CC1=CC(=CC(=C1)[SiH](C)C)C
InChI: InChI=1S/C10H16Si/c1-8-5-9(2)7-10(6-8)11(3)4/h5-7,11H,1-4H3
Instrument: JMS-T100GCV (JEOL, Akishima, Japan) coupled to Agilent 7890A (Santa Clara, CA, USA) gas chromatograph.
Instrument type: GC-EI-TOF
Ms type: MS
Ion mode: POSITIVE
Ionization: EI
Column name: HP-5 19091J-413 USD364547H (Agilent, Wilmington, USA) with the length 30.0 m, I.D. 0.32 mm, and thickness 0.25 micrometer.
Retention time: 7.32 min
m/z	relative intensity
26.752	6
27.024	30
27.977	13
28.006	26
28.985	29
29.889	5
31.001	23
31.989	12
34.526	5
38.014	6
39.024	50
39.206	7
40.03	9
41.039	15
41.993	14
43.001	246
44.009	28
44.052	4
45.017	31
47.748	5
48.68	5
50.017	14
51.024	32
52.032	13
52.985	63
53.04	18
53.992	10
55.001	29
57.017	12
58.024	224
58.091	8
59.032	254
60.03	20
61.031	9
62.014	7
63.025	27
65.039	22
65.994	18
67	55
67.059	5
68.002	9
69.016	28
72.04	56
73.026	7
73.047	14
74.035	13
74.539	7
75.025	6
76.036	7
76.983	12
77.04	68
78.047	28
79	20
79.055	39
81.016	18
81.549	7
83.032	22
84.026	6
89.041	11
89.542	5
89.624	5
91.001	6
91.055	67
92.01	6
92.055	10
93.017	31
94.024	5
94.249	5
95.032	21
97.046	8
102.048	10
103.056	44
104.063	18
105.016	57
105.071	75
106.02	12
106.077	24
107.032	42
109.047	16
115.056	12
116.965	5
117.017	10
117.069	9
118.028	5
119.032	49
119.087	19
120.033	8
121.048	71
122.049	8
123.061	8
127.101	5
131.031	51
132.035	10
133.048	73
134.051	12
135.062	39
136.065	9
141.073	5
145.048	78
146.051	14
147.062	80
147.336	6
148.068	29
149.079	999
149.511	6
150.081	145
151.077	35
159.063	13
161.083	5
163.094	149
164.102	398
165.104	61
166.1	20
167.54	7
220.384	4
227.76	5
262.576	6
284.212	6
284.427	4
292.147	6
