Mass spectrum: Amezinium; LC-ESI-QQ; MS2; ESI; POSITIVE; CID; CE 40 V; [M]+
Name: Amezinium
Class: Non-natural product
Formula: [C11H12N3O]+
Exact mass: 202.097477
SMILES: COC1=[N+](N=CC(=C1)N)C2=CC=CC=C2
InChI: InChI=1S/C11H11N3O/c1-15-11-7-9(12)8-13-14(11)10-5-3-2-4-6-10/h2-8,12H,1H3/p+1
Instrument: LCMS-8040 coupled to Nexera XR (Shimadzu, Kyoto, Japan).
Instrument type: LC-ESI-QQ
Ms type: MS2
Ion mode: POSITIVE
Collision energy: 40 V
Fragmentation mode: CID
Ionization: ESI
Column name: InertSustain C18 ID 2.1 microm, 2.1 x 100 mm (GL Science, Tokyo, Japan).
Retention time: 5.434 min
Precursor m/z: 202.097477
Precursor type: [M]+
m/z	relative intensity
30.2	19
43.1	32
51.2	177
53.2	108
54.2	318
56.2	12
63.2	19
65.3	88
66.3	29
67.3	37
68.2	33
77.2	999
78.2	27
79.2	87
80.2	10
82.2	16
89.1	43
90.2	16
91.2	169
93.2	211
95.2	46
102.2	16
103.1	16
104.2	155
106.2	97
107.2	40
108.0	14
112.1	23
115.2	30
116.1	83
118.1	19
119.2	93
120.1	19
126.2	22
128.2	11
130.3	46
131.1	97
132.2	82
142.2	11
143.4	11
145.1	19
159.1	29
186.1	138
202.0	39
