Mass spectrum: 1-[[(2-Methyloctyl)thio]methyl]-4-[(methylthio)methyl]cyclohexane; GC-EI-TOF; MS; POSITIVE; 70 V
Name: 1-[[(2-Methyloctyl)thio]methyl]-4-[(methylthio)methyl]cyclohexane
Class: Non-natural compound
Formula: C18H36S2
Exact mass: 316.225842
SMILES: CSCC1CCC(CSCC(C)CCCCCC)CC1
InChI: InChI=1S/C18H36S2/c1-4-5-6-7-8-16(2)13-20-15-18-11-9-17(10-12-18)14-19-3/h16-18H,4-15H2,1-3H3
Instrument: JMS-T100GCV (JEOL, Akishima, Japan) coupled to Agilent 7890A (Santa Clara, CA, USA) gas chromatograph.
Instrument type: GC-EI-TOF
Ms type: MS
Ion mode: POSITIVE
Ionization: EI
Column name: HP-5 19091J-413 USD364547H (Agilent, Wilmington, USA) with the length 30.0 m, I.D. 0.32 mm, and thickness 0.25 micrometer.
Retention time: 11.63 min
m/z	relative intensity
27.025	97
27.068	2
28.007	25
28.033	14
29.041	247
30.044	5
31.991	15
34.997	28
35.328	1
39.025	85
39.055	2
40.033	15
41.041	638
41.168	3
41.325	3
41.39	2
41.556	2
41.614	2
42.048	84
43.057	703
43.182	2
43.293	2
43.338	2
43.38	3
43.884	2
43.992	2
44.06	23
44.088	2
44.982	68
45.03	1
45.99	25
46.998	89
47.081	2
48.006	15
48.993	4
49.014	9
50.017	2
51.026	6
52.033	3
53.041	94
53.1	2
54.049	78
54.113	2
55.057	530
55.351	2
55.426	2
56.064	133
56.129	2
57.073	303
57.182	2
57.991	3
58.076	12
58.998	25
60.005	19
61.013	969
61.293	2
61.4	4
61.421	3
61.641	3
61.715	2
61.911	2
61.971	2
62.019	58
63.009	41
64.016	2
65.041	41
66.049	35
67.057	524
67.176	3
67.417	2
67.459	2
67.722	1
68.063	62
69.072	285
69.137	4
70.079	57
70.46	1
70.998	10
71.088	128
71.149	2
71.207	2
72.005	6
72.091	6
73.014	39
74.021	31
75.029	47
76.035	5
77.041	64
78.048	26
79.057	428
79.426	2
79.769	2
80.064	127
80.469	2
80.817	2
81.073	219
81.206	2
81.551	2
82.079	34
82.148	2
83.088	103
83.13	2
83.173	2
84.005	7
84.095	35
85.014	87
85.104	36
86.02	19
86.107	3
87.029	53
88.036	10
89.045	12
91.057	104
91.428	2
92.063	15
92.985	9
93.073	291
94.08	225
95.088	393
95.485	2
95.993	1
96.092	34
97.014	8
97.104	27
98.02	3
98.111	14
99.029	30
100.035	7
101.045	43
102.051	9
103.058	6
104.06	2
105.073	28
106.077	5
107.088	331
107.244	2
108.096	999
108.554	3
108.606	2
108.912	2
108.941	2
108.981	2
109.019	3
109.103	342
109.252	3
109.309	2
110.11	59
110.211	2
111.029	2
111.118	11
112.037	3
112.125	5
113.044	46
113.129	2
114.049	7
115.06	10
117.075	3
121.104	2
125.133	3
126.142	14
127.06	38
127.148	3
128.067	9
129.074	8
131.095	3
140.068	5
141.076	749
141.602	3
141.663	2
142.082	241
142.551	2
142.604	2
142.914	2
142.979	2
143.088	75
143.161	2
144.081	12
145.087	3
155.091	76
155.19	2
156.098	34
157.106	45
158.114	29
159.122	285
160.126	31
161.119	12
171.125	2
173.048	30
173.138	37
174.053	4
174.142	5
175.063	84
176.065	9
177.06	7
183.124	4
188.072	7
189.079	191
190.086	321
190.768	2
191.088	54
191.176	3
191.232	2
192.083	29
192.316	2
193.087	4
203.094	15
204.101	5
205.089	2
207.035	4
217.111	2
225.083	1
231.126	3
245.127	2
255.214	4
259.154	4
267.219	4
269.231	12
270.236	3
300.805	1
301.202	24
302.207	5
303.204	3
315.217	6
316.226	461
316.919	2
316.988	2
317.13	2
317.229	96
317.455	1
318.223	46
319.227	8
320.221	3
