Mass spectrum: Fenoxaprop-ethyl; LC-ESI-QTOF; MS2; [M+H]+; CID; CE 60V
Name: Fenoxaprop-ethyl
Class: Non-natural product
Formula: C18H16ClNO5
Exact mass: 361.0717
SMILES: CCOC(=O)C(C)OC1=CC=C(C=C1)OC2=NC3=C(O2)C=C(C=C3)Cl
InChI: InChI=1S/C18H16ClNO5/c1-3-22-17(21)11(2)23-13-5-7-14(8-6-13)24-18-20-15-9-4-12(19)10-16(15)25-18/h4-11H,3H2,1-2H3
Instrument: X500R QTOF (AB Sciex LLC, MA, USA) coupled to ExionLC AD (AB Sciex LLC, MA, USA).
Instrument type: LC-ESI-QTOF
Ms type: MS2
Ion mode: POSITIVE
Collision energy: 60 V
Fragmentation mode: CID
Ionization: ESI
Column name: TSKgel ODS-100S 5 um, 2.1 mm Ã— 250 mm, TOSOH
Retention time: 16.1 min
Precursor m/z: 362.078977
Precursor type: [M+H]+
m/z	relative intensity
39.0226	59
43.0176	119
45.0333	47
53.0384	47
55.0176	39
65.0383	284
75.0226	103
77.0384	701
79.054	75
91.0539	999
92.0255	108
93.0696	191
94.041	90
95.0489	69
103.054	658
105.0443	72
111.9946	62
119.049	107
121.0645	275
125.0024	63
138.0462	82
139.9895	224
153.0572	162
154.0652	135
164.0493	429
165.0571	458
173.0152	112
174.0104	144
180.0807	110
182.0598	118
188.0262	129
216.0211	124
