Mass spectrum: Mexazolam; LC-ESI-QQ; MS2; ESI; NEGATIVE; CID; CE 50 V; [M-H]-
Name: Mexazolam
Class: Non-natural product
Formula: C18H16Cl2N2O2
Exact mass: 362.058876
SMILES: CC1COC2(N1CC(=O)NC3=C2C=C(C=C3)Cl)C4=CC=CC=C4Cl
InChI: InChI=1S/C18H16Cl2N2O2/c1-11-10-24-18(13-4-2-3-5-15(13)20)14-8-12(19)6-7-16(14)21-17(23)9-22(11)18/h2-8,11H,9-10H2,1H3,(H,21,23)
Instrument: LCMS-8040 coupled to Nexera XR (Shimadzu, Kyoto, Japan).
Instrument type: LC-ESI-QQ
Ms type: MS2
Ion mode: NEGATIVE
Ionization: ESI
Collision energy: 50 V
Fragmentation mode: CID
Column name: InertSustain C18 ID 2.1 microm, 2.1 x 100 mm (GL Science, Tokyo, Japan).
Retention time: 10.227 min
Precursor m/z: 361.051599
Precursor type: [M-H]-
m/z	relative intensity
35.1	999
42.2	144
75.2	14
111.0	163
116.2	46
125.8	54
127.2	23
140.9	46
149.9	23
151.0	131
151.9	72
154.5	46
164.8	239
165.9	116
182.9	23
215.9	46
223.8	125
229.0	70
251.3	23
258.6	23
264.6	46
265.7	28
288.0	46
289.1	23
330.7	46
