Mass spectrum: Mexazolam; LC-ESI-QQ; MS2; ESI; POSITIVE; CID; CE 30 V; [M+H]+
Name: Mexazolam
Class: Non-natural product
Formula: C18H16Cl2N2O2
Exact mass: 362.058876
SMILES: CC1COC2(N1CC(=O)NC3=C2C=C(C=C3)Cl)C4=CC=CC=C4Cl
InChI: InChI=1S/C18H16Cl2N2O2/c1-11-10-24-18(13-4-2-3-5-15(13)20)14-8-12(19)6-7-16(14)21-17(23)9-22(11)18/h2-8,11H,9-10H2,1H3,(H,21,23)
Instrument: LCMS-8040 coupled to Nexera XR (Shimadzu, Kyoto, Japan).
Instrument type: LC-ESI-QQ
Ms type: MS2
Ion mode: POSITIVE
Ionization: ESI
Collision energy: 30 V
Fragmentation mode: CID
Column name: InertSustain C18 ID 2.1 microm, 2.1 x 100 mm (GL Science, Tokyo, Japan).
Retention time: 10.227 min
Precursor m/z: 363.066153
Precursor type: [M+H]+
m/z	relative intensity
70.3	172
133.1	21
138.1	13
139.1	11
140.2	208
150.3	16
165.1	57
166.1	62
168.2	15
178.1	11
206.2	15
227.1	22
228.2	29
241.2	53
242.1	56
252.1	23
276.1	52
277.1	34
305.1	999
