Mass spectrum: Oxazolam; LC-ESI-QQ; MS2; ESI; POSITIVE; CE 20 V; [M+H]+
Name: Oxazolam
Class: Non-natural product
Formula: C18H17ClN2O2
Exact mass: 328.09785
SMILES: CC1CN2CC(=O)NC3=C(C2(O1)C4=CC=CC=C4)C=C(C=C3)Cl
InChI: InChI=1S/C18H17ClN2O2/c1-12-10-21-11-17(22)20-16-8-7-14(19)9-15(16)18(21,23-12)13-5-3-2-4-6-13/h2-9,12H,10-11H2,1H3,(H,20,22)
Instrument: LCMS-8040 coupled to Nexera XR (Shimadzu, Kyoto, Japan).
Instrument type: LC-ESI-QQ
Ms type: MS2
Ion mode: POSITIVE
Collision energy: 20 V
Ionization: ESI
Column name: InertSustain C18 ID 2.1 microm, 2.1 x 100 mm (GL Science, Tokyo, Japan).
Retention time: 10.122, 10.197 min (broad two peaks)
Precursor m/z: 329.10513
Precursor type: [M+H]+
m/z	relative intensity
59	41
70	195
106	28
140	53
165	19
166	14
232	39
243	20
244	10
254	15
256	19
271	965
272	111
281	13
285	26
301	14
329	999
