Mass spectrum: S-Ethyl (4-methoxycarbonyl)benzothioate; GC-EI-TOF; MS; POSITIVE; 70 V
Name: S-Ethyl (4-methoxycarbonyl)benzothioate
Class: Non-natural compound
Formula: C11H12O3S
Exact mass: 224.050716
SMILES: CCSC(=O)C1=CC=C(C=C1)C(=O)OC
InChI: InChI=1S/C11H12O3S/c1-3-15-11(13)9-6-4-8(5-7-9)10(12)14-2/h4-7H,3H2,1-2H3
Instrument: JMS-T100GCV (JEOL, Akishima, Japan) coupled to Agilent 7890A (Santa Clara, CA, USA) gas chromatograph.
Instrument type: GC-EI-TOF
Ms type: MS
Ion mode: POSITIVE
Ionization: EI
Column name: ZB-1MS 7HM-G011-11 sn:313446 (Agilent, Wilmington, USA) with the length 30.0 m, I.D. 0.32 mm, and thickness 0.25 micrometer.
Retention time: 9.52 min
m/z	relative intensity
26.016	2
27.024	21
28.006	6
28.031	3
29.039	15
31.99	3
34.996	7
39.024	6
44.98	7
45.988	3
50.016	48
51.023	10
52.014	2
53.003	3
57.988	3
59.013	9
60.003	2
61.011	7
62.016	2
63.024	8
64.031	5
65.039	6
66.011	2
68.98	4
74.016	15
75.023	52
76.031	100
77.039	43
78.043	4
79.054	3
92.026	18
103.018	90
104.026	83
104.108	1
105.031	10
107.05	6
108.003	6
109.011	4
119.013	30
120.021	48
121.023	4
132.021	6
134.99	1
135.045	134
135.21	1
135.998	7
136.048	13
137.005	4
139.022	2
163.039	999
163.496	2
163.671	3
164.043	104
164.582	2
165.041	22
165.555	1
166.044	3
167.02	2
193.032	33
194.035	4
195.029	2
224.051	23
225.054	3
226.051	1
