Mass spectrum: Imipramine; LC-ESI-QQ; MS; ESI; POSITIVE
Name: Imipramine
Class: Non-natural product
Formula: C19H24N2
Exact mass: 280.19394
SMILES: CN(C)CCCN1C2=CC=CC=C2CCC3=CC=CC=C31
InChI: InChI=1S/C19H24N2/c1-20(2)14-7-15-21-18-10-5-3-8-16(18)12-13-17-9-4-6-11-19(17)21/h3-6,8-11H,7,12-15H2,1-2H3
Instrument: LCMS-8040 coupled to Nexera XR (Shimadzu, Kyoto, Japan).
Instrument type: LC-ESI-QQ
Ms type: MS
Ion mode: POSITIVE
Ionization: ESI
Column name: InertSustain C18 ID 2.1 microm, 2.1 x 100 mm (GL Science, Tokyo, Japan).
Retention time: 8.828 min
m/z	relative intensity
281.3	999
282.3	215
283.3	20
