Mass spectrum: Triazolam; LC-ESI-QQ; MS2; ESI; POSITIVE; CID; CE 30 V; [M+H]+
Name: Triazolam
Class: Non-natural product
Formula: C17H12Cl2N4
Exact mass: 342.04389
SMILES: CC1=NN=C2N1C3=C(C=C(C=C3)Cl)C(=NC2)C4=CC=CC=C4Cl
InChI: InChI=1S/C17H12Cl2N4/c1-10-21-22-16-9-20-17(12-4-2-3-5-14(12)19)13-8-11(18)6-7-15(13)23(10)16/h2-8H,9H2,1H3
Instrument: LCMS-8040 coupled to Nexera XR (Shimadzu, Kyoto, Japan).
Instrument type: LC-ESI-QQ
Ms type: MS2
Ion mode: POSITIVE
Collision energy: 30 V
Fragmentation mode: CID
Ionization: ESI
Column name: InertSustain C18 ID 2.1 microm, 2.1 x 100 mm (GL Science, Tokyo, Japan).
Retention time: 8.845 min
Precursor m/z: 343.05116
Precursor type: [M+H]+
m/z	relative intensity
66.2	67
110.9	18
115.2	19
116.3	12
126.2	17
129.8	12
138.0	116
162.0	23
162.9	12
165.1	153
171.2	39
203.2	14
204.0	63
206.0	57
211.7	11
217.2	13
225.1	16
232.2	19
238.1	91
239.1	279
240.2	15
250.2	40
252.1	16
253.2	93
260.1	19
260.9	10
265.2	14
266.2	26
272.2	11
273.1	20
275.1	68
278.1	11
279.1	94
280.2	45
281.1	19
285.1	33
289.0	20
308.2	999
313.0	14
315.1	851
343.1	469
