Mass spectrum: Desipramine; LC-ESI-QQ; MS; ESI; POSITIVE
Name: Desipramine
Class: Non-natural product
Formula: C18H22N2
Exact mass: 266.17829
SMILES: CNCCCN1C2=CC=CC=C2CCC3=CC=CC=C31
InChI: InChI=1S/C18H22N2/c1-19-13-6-14-20-17-9-4-2-7-15(17)11-12-16-8-3-5-10-18(16)20/h2-5,7-10,19H,6,11-14H2,1H3
Instrument: LCMS-8040 coupled to Nexera XR (Shimadzu, Kyoto, Japan).
Instrument type: LC-ESI-QQ
Ms type: MS
Ion mode: POSITIVE
Ionization: ESI
Column name: InertSustain C18 ID 2.1 microm, 2.1 x 100 mm (GL Science, Tokyo, Japan).
Retention time: 8.466 min
m/z	relative intensity
202.2	12
267.3	999
268.3	214
269.3	18
