Mass spectrum: Metosulam; LC-ESI-QTOF; MS2; [M-H]-; CID; CE 60V
Name: Metosulam
Class: Non-natural product
Formula: C14H13Cl2N5O4S
Exact mass: 417.00653
SMILES: CC1=C(C(=C(C=C1)Cl)NS(=O)(=O)C2=NN3C(=CC(=NC3=N2)OC)OC)Cl
InChI: InChI=1S/C14H13Cl2N5O4S/c1-7-4-5-8(15)12(11(7)16)20-26(22,23)14-18-13-17-9(24-2)6-10(25-3)21(13)19-14/h4-6,20H,1-3H3
Instrument: X500R QTOF (AB Sciex LLC, MA, USA) coupled to ExionLC AD (AB Sciex LLC, MA, USA).
Instrument type: LC-ESI-QTOF
Ms type: MS2
Ion mode: NEGATIVE
Collision energy: 60 V
Fragmentation mode: CID
Ionization: ESI
Column name: AQ-C18HP 3 microm, 2.1 mm Ã— 150 mm (GL Science, Tokyo, Japan).
Retention time: 30.6 min
Precursor m/z: 415.999253
Precursor type: [M-H]-
m/z	relative intensity
41.0146	285
65.0145	82
65.9992	263
66.0097	596
78.0225	119
93.0096	53
107.0124	143
109.0049	58
111.0681	221
122.0121	103
123.02	146
134.0239	80
135.0314	184
136.0392	103
163.0266	248
164.034	999
179.0574	265
