Mass spectrum: Indometacin; LC-ESI-QQ; MS; ESI; NEGATIVE
Name: Indometacin
Class: Non-natural product
Formula: C19H16ClNO4
Exact mass: 357.076783
SMILES: CC1=C(C2=C(N1C(=O)C3=CC=C(C=C3)Cl)C=CC(=C2)OC)CC(=O)O
InChI: InChI=1S/C19H16ClNO4/c1-11-15(10-18(22)23)16-9-14(25-2)7-8-17(16)21(11)19(24)12-3-5-13(20)6-4-12/h3-9H,10H2,1-2H3,(H,22,23)
Instrument: LCMS-8040 coupled to Nexera XR (Shimadzu, Kyoto, Japan).
Instrument type: LC-ESI-QQ
Ms type: MS
Ion mode: NEGATIVE
Ionization: ESI
Column name: InertSustain C18 ID 2.1 microm, 2.1 x 100 mm (GL Science, Tokyo, Japan).
Retention time: 9.281 min
m/z	relative intensity
158.0	31
159.0	11
174.1	31
254.1	14
255.0	21
269.0	68
270.1	33
271.1	30
282.0	86
284.1	59
285.1	11
286.1	15
297.1	113
298.1	21
299.1	39
312.1	999
313.2	192
314.1	343
315.1	60
316.1	11
356.1	874
357.1	201
358.1	336
359.1	64
392.1	26
394.1	17
402.1	203
403.2	44
404.1	71
405.2	16
