Mass spectrum: Flazasulfuron; LC-ESI-QTOF; MS2; [M+H]+; CID; CE 30V
Name: Flazasulfuron
Class: Non-natural product
Formula: C13H12F3N5O5S
Exact mass: 407.051124
SMILES: COC1=CC(=NC(=N1)NC(=O)NS(=O)(=O)C2=C(C=CC=N2)C(F)(F)F)OC
InChI: InChI=1S/C13H12F3N5O5S/c1-25-8-6-9(26-2)19-11(18-8)20-12(22)21-27(23,24)10-7(13(14,15)16)4-3-5-17-10/h3-6H,1-2H3,(H2,18,19,20,21,22)
Instrument: X500R QTOF (AB Sciex LLC, MA, USA) coupled to ExionLC AD (AB Sciex LLC, MA, USA).
Instrument type: LC-ESI-QTOF
Ms type: MS2
Ion mode: POSITIVE
Collision energy: 30 V
Fragmentation mode: CID
Ionization: ESI
Column name: AQ-C18HP 3 microm, 2.1 mm Ã— 150 mm (GL Science, Tokyo, Japan).
Retention time: 31.8 min
Precursor m/z: 408.058401
Precursor type: [M+H]+
m/z	relative intensity
83.0237	29
139.0503	38
156.0766	57
182.056	999
227.0099	112
301.0907	49
