Mass spectrum: Sulindac; LC-ESI-QQ; MS2; ESI; NEGATIVE; CID; CE 50 V; [M-HCO2]-
Name: Sulindac
Class: Non-natural product
Formula: C20H17FO3S
Exact mass: 356.088244
SMILES: CC\1=C(C2=C(/C1=C\C3=CC=C(C=C3)S(=O)C)C=CC(=C2)F)CC(=O)O
InChI: InChI=1S/C20H17FO3S/c1-12-17(9-13-3-6-15(7-4-13)25(2)24)16-8-5-14(21)10-19(16)18(12)11-20(22)23/h3-10H,11H2,1-2H3,(H,22,23)/b17-9-
Instrument: LCMS-8040 coupled to Nexera XR (Shimadzu, Kyoto, Japan).
Instrument type: LC-ESI-QQ
Ms type: MS2
Ion mode: NEGATIVE
Collision energy: 50 V
Fragmentation mode: CID
Ionization: ESI
Column name: InertSustain C18 ID 2.1 microm, 2.1 x 100 mm (GL Science, Tokyo, Japan).
Retention time: 7.915 min
Precursor m/z: 311.091137
Precursor type: [M-HCO2]-
m/z	relative intensity
32.2	60
93.1	109
107.0	60
123.4	72
137.0	576
151.1	54
190.0	30
190.9	57
220.0	32
221.1	60
232.2	49
233.6	30
238.2	137
240.1	20
247.8	471
250.9	149
251.8	30
261.0	999
263.0	630
263.8	123
266.2	60
275.1	30
277.3	87
278.9	330
280.1	122
291.8	30
293.1	198
295.0	164
296.0	42
