Mass spectrum: Brotizolam; LC-ESI-QQ; MS2; ESI; POSITIVE; CID; CE 30 V; [M+H]+ Isotopolog ion
Name: Brotizolam
Class: Non-natural product
Formula: C15H10BrClN4S
Exact mass: 391.949792
SMILES: CC1=NN=C2N1C3=C(C=C(S3)Br)C(=NC2)C4=CC=CC=C4Cl
InChI: InChI=1S/C15H10BrClN4S/c1-8-19-20-13-7-18-14(9-4-2-3-5-11(9)17)10-6-12(16)22-15(10)21(8)13/h2-6H,7H2,1H3
Instrument: LCMS-8040 coupled to Nexera XR (Shimadzu, Kyoto, Japan).
Instrument type: LC-ESI-QQ
Ms type: MS2
Ion mode: POSITIVE
Collision energy: 30 V
Fragmentation mode: CID
Ionization: ESI
Column name: InertSustain C18 ID 2.1 microm, 2.1 x 100 mm (GL Science, Tokyo, Japan).
Retention time: 8.988 min
Precursor m/z: 394.955022
Precursor type: [M+H]+
m/z	relative intensity
42.2	16
57.3	43
66.3	30
108.3	18
109.1	29
132.3	11
133.2	12
136.2	27
139.2	14
149.2	16
169.0	11
171.1	20
176.1	73
177.1	139
178.2	28
183.1	11
188.0	39
190.0	104
195.8	24
205.2	11
206.1	11
210.1	76
211.1	32
212.0	13
214.1	44
215.0	23
216.2	19
218.2	19
221.2	16
224.2	41
225.9	20
227.1	28
228.1	22
232.0	17
235.2	44
237.2	21
238.2	15
240.0	11
241.2	23
244.0	82
245.1	117
246.1	73
247.1	39
248.1	43
250.1	16
251.2	77
255.9	22
257.1	26
259.2	81
261.0	21
269.0	23
271.1	60
273.1	51
275.0	10
277.1	19
278.1	76
279.2	410
281.1	20
282.1	220
284.1	57
285.1	51
286.1	11
287.1	21
288.1	18
288.9	25
290.0	20
291.2	25
296.8	11
314.2	999
315.2	38
316.2	691
326.1	29
327.0	33
341.1	18
358.2	13
360.2	53
367.1	82
368.1	11
395.1	341
