Mass spectrum: (2-Chlorophenyl)dimethylsilane; GC-EI-TOF; MS; POSITIVE; 70 V
Name: (2-Chlorophenyl)dimethylsilane
Class: Non-natural compound
Formula: C8H11ClSi
Exact mass: 170.031855
SMILES: Clc1ccccc1[SiH](C)C
InChI: InChI=1S/C8H11ClSi/c1-10(2)8-6-4-3-5-7(8)9/h3-6,10H,1-2H3
Instrument: JMS-T100GCV (JEOL, Akishima, Japan) coupled to Agilent 7890A (Santa Clara, CA, USA) gas chromatograph.
Instrument type: GC-EI-TOF
Ms type: MS
Ion mode: POSITIVE
Ionization: EI
Column name: HP-5 19091J-413 USD364547H (Agilent, Wilmington, USA) with the length 30.0 m, I.D. 0.32 mm, and thickness 0.25 micrometer.
Retention time: 7.26 min
m/z	relative intensity
21.603	8
26.015	7
27.025	44
27.977	17
28.006	29
28.986	26
29.085	6
31.001	15
31.989	19
38.017	8
39.024	41
41.041	12
41.994	25
43.001	152
44.003	15
48.194	6
50.017	79
51.024	67
52.985	92
53.989	13
55.001	13
58.025	101
59.033	39
60.025	6
62.946	457
63.023	44
63.947	24
64.944	160
65.04	54
65.943	14
65.992	20
66.96	11
67	21
70.078	5
70.642	7
73.013	8
74.016	38
75.024	51
76.033	45
76.985	44
77.04	46
77.31	6
77.975	22
78.05	8
78.978	66
79.971	12
80.975	21
84.513	9
85.517	5
88.962	12
89.04	30
89.995	7
90.046	9
91	9
91.056	457
91.129	9
92.059	32
92.993	163
93.993	10
94.99	55
100.985	11
102.978	24
104.007	8
104.069	9
105.017	56
105.069	9
107.032	7
111.004	12
112.01	15
117.015	17
119.033	71
120.033	16
126.978	18
128.985	12
131.034	12
133.049	27
135.064	16
138.976	12
139.986	9
140.994	37
141.993	11
142.989	17
152.995	20
153.995	11
155.009	999
155.246	7
156.011	126
157.006	359
157.174	5
158.008	44
159.001	12
169.024	43
170.032	82
171.027	23
172.029	27
173.042	6
