Mass spectrum: Diclomezine; LC-ESI-QTOF; MS2; [M+H]+; CID; CE 40V
Name: Diclomezine
Class: Non-natural product
Formula: C11H8Cl2N2O
Exact mass: 254.001368
SMILES: CC1=C(C=C(C=C1Cl)C2=NNC(=O)C=C2)Cl
InChI: InChI=1S/C11H8Cl2N2O/c1-6-8(12)4-7(5-9(6)13)10-2-3-11(16)15-14-10/h2-5H,1H3,(H,15,16)
Instrument: X500R QTOF (AB Sciex LLC, MA, USA) coupled to ExionLC AD (AB Sciex LLC, MA, USA).
Instrument type: LC-ESI-QTOF
Ms type: MS2
Ion mode: POSITIVE
Collision energy: 40 V
Fragmentation mode: CID
Ionization: ESI
Column name: AQ-C18HP 3 microm, 2.1 mm Ã— 150 mm (GL Science, Tokyo, Japan).
Retention time: 31.8 min
Precursor m/z: 255.008645
Precursor type: [M+H]+
m/z	relative intensity
52.0179	100
53.0021	157
70.0289	70
80.013	411
89.0383	121
106.0651	151
122.9994	553
124.0078	145
128.062	216
129.0699	143
130.0649	96
140.0252	124
141.0343	966
141.0454	97
156.0677	65
157.0756	166
158.976	999
163.0312	364
165.0342	62
174.994	133
176.0037	195
184.0627	102
185.0712	225
191.025	90
191.0362	255
192.0453	198
209.9872	380
219.0324	195
255.0082	546
