Mass spectrum: Imidacloprid; LC-ESI-QTOF; MS2; [M+H]+; CID; CE 40V
Name: Imidacloprid
Class: Non-natural product
Formula: C9H10ClN5O2
Exact mass: 255.052302
SMILES: C1CN(C(=N[N+](=O)[O-])N1)CC2=CN=C(C=C2)Cl
InChI: InChI=1S/C9H10ClN5O2/c10-8-2-1-7(5-12-8)6-14-4-3-11-9(14)13-15(16)17/h1-2,5H,3-4,6H2,(H,11,13)
Instrument: X500R QTOF (AB Sciex LLC, MA, USA) coupled to ExionLC AD (AB Sciex LLC, MA, USA).
Instrument type: LC-ESI-QTOF
Ms type: MS2
Ion mode: POSITIVE
Collision energy: 40 V
Fragmentation mode: CID
Ionization: ESI
Column name: TSKgel ODS-100S 5 um, 2.1 mm Ã— 250 mm, TOSOH
Retention time: 11.1 min
Precursor m/z: 256.059579
Precursor type: [M+H]+
m/z	relative intensity
56.0493	15
84.0555	103
90.0335	17
92.049	17
105.0445	38
106.0653	25
107.0606	29
119.0602	34
120.0556	29
126.0105	85
128.0261	64
131.0602	28
133.064	52
133.075	44
134.0711	43
141.0214	44
146.0713	107
147.0664	154
148.0869	67
158.0714	73
159.0792	119
167.0367	47
173.0821	210
174.09	159
175.0977	781
181.0276	60
208.0517	42
209.0588	999
