Mass spectrum: Clobazam; LC-ESI-QQ; MS2; ESI; POSITIVE; CE 50 V; [M+NH4]+
Name: Clobazam
Class: Non-natural product
Formula: C16H13ClN2O2
Exact mass: 300.06655
SMILES: CN1C(=O)CC(=O)N(C2=C1C=CC(=C2)Cl)C3=CC=CC=C3
InChI: InChI=1S/C16H13ClN2O2/c1-18-13-8-7-11(17)9-14(13)19(16(21)10-15(18)20)12-5-3-2-4-6-12/h2-9H,10H2,1H3
Instrument: LCMS-8040 coupled to Nexera XR (Shimadzu, Kyoto, Japan).
Instrument type: LC-ESI-QQ
Ms type: MS2
Ion mode: POSITIVE
Collision energy: 50 V
Ionization: ESI
Column name: InertSustain C18 ID 2.1 microm, 2.1 x 100 mm (GL Science, Tokyo, Japan).
Retention time: 8.818 min
Precursor m/z: 318.10092
Precursor type: [M+NH4]+
m/z	relative intensity
17	11
18	13
51	101
58	11
69	22
77	745
90	70
91	67
92	29
103	22
105	451
117	75
118	108
119	88
126	43
129	50
139	42
146	22
147	13
153	687
166	74
167	122
170	33
180	106
181	196
182	316
183	17
191	11
195	347
196	49
202	40
203	103
207	29
208	11
209	11
215	320
216	331
217	79
223	879
224	999
243	22
244	40
247	26
259	382
301	11
