Mass spectrum: Oxazolam; LC-ESI-QQ; MS2; ESI; POSITIVE; CE 40 V; [M+H]+
Name: Oxazolam
Class: Non-natural product
Formula: C18H17ClN2O2
Exact mass: 328.09785
SMILES: CC1CN2CC(=O)NC3=C(C2(O1)C4=CC=CC=C4)C=C(C=C3)Cl
InChI: InChI=1S/C18H17ClN2O2/c1-12-10-21-11-17(22)20-16-8-7-14(19)9-15(16)18(21,23-12)13-5-3-2-4-6-13/h2-9,12H,10-11H2,1H3,(H,20,22)
Instrument: LCMS-8040 coupled to Nexera XR (Shimadzu, Kyoto, Japan).
Instrument type: LC-ESI-QQ
Ms type: MS2
Ion mode: POSITIVE
Collision energy: 40 V
Ionization: ESI
Column name: InertSustain C18 ID 2.1 microm, 2.1 x 100 mm (GL Science, Tokyo, Japan).
Retention time: 10.122, 10.197 min (broad two peaks)
Precursor m/z: 329.10513
Precursor type: [M+H]+
m/z	relative intensity
30	12
32	44
38	12
41	52
42	165
54	25
58	23
59	375
65	12
70	426
77	35
91	415
102	25
103	25
104	58
105	109
106	67
113	67
116	179
117	73
118	62
124	12
127	70
130	30
133	44
138	87
139	24
140	999
150	45
152	12
153	18
154	84
158	64
164	44
165	564
166	201
168	11
178	12
179	14
180	17
181	16
190	48
191	140
192	49
193	172
206	18
208	413
209	12
214	60
217	12
218	120
219	40
221	23
226	115
227	42
228	12
235	12
237.6	12
238.3	12
241	125
242	132
243	70
249	37
252	25
254	12
265	12
269	25
271	232
277	12
329	12
