Mass spectrum: Lormetazepam; LC-ESI-QQ; MS2; ESI; POSITIVE; CID; CE 40 V; [M+H]+
Name: Lormetazepam
Class: Non-natural product
Formula: C16H12Cl2N2O2
Exact mass: 334.027576
SMILES: CN1C2=C(C=C(C=C2)Cl)C(=NC(C1=O)O)C3=CC=CC=C3Cl
InChI: InChI=1S/C16H12Cl2N2O2/c1-20-13-7-6-9(17)8-11(13)14(19-15(21)16(20)22)10-4-2-3-5-12(10)18/h2-8,15,21H,1H3
Instrument: LCMS-8040 coupled to Nexera XR (Shimadzu, Kyoto, Japan).
Instrument type: LC-ESI-QQ
Ms type: MS2
Ion mode: POSITIVE
Ionization: ESI
Collision energy: 40 V
Fragmentation mode: CID
Column name: InertSustain C18 ID 2.1 microm, 2.1 x 100 mm (GL Science, Tokyo, Japan).
Retention time: 9.178 min
Precursor m/z: 335.034853
Precursor type: [M+H]+
m/z	relative intensity
58.3	15
73.2	16
89.2	28
90.5	13
99.3	13
100.1	22
102.2	32
111.1	210
117.1	95
123.2	26
125.2	145
127.2	65
132.2	16
136.1	87
138.1	56
150.1	99
150.9	16
152.2	44
164.3	19
165.2	11
166.1	30
177.1	550
178.1	18
180.1	26
192.2	27
193.0	20
201.2	24
202.1	16
208.1	23
212.0	27
213.2	99
214.1	64
217.2	22
218.1	26
219.2	124
226.1	22
227.1	148
228.1	119
239.1	105
243.2	86
247.1	11
248.3	30
249.9	16
253.1	245
255.2	25
262.1	15
273.1	71
289.1	999
291.1	40
317.1	24
