Mass spectrum: Olanzapine; LC-ESI-QQ; MS2; ESI; POSITIVE; CID; CE 30 V; [M+H]+
Name: Olanzapine
Class: Non-natural product
Formula: C17H20N4S
Exact mass: 312.140851
SMILES: CC1=CC2=C(S1)NC3=CC=CC=C3N=C2N4CCN(CC4)C
InChI: InChI=1S/C17H20N4S/c1-12-11-13-16(21-9-7-20(2)8-10-21)18-14-5-3-4-6-15(14)19-17(13)22-12/h3-6,11,19H,7-10H2,1-2H3
Instrument: LCMS-8040 coupled to Nexera XR (Shimadzu, Kyoto, Japan).
Instrument type: LC-ESI-QQ
Ms type: MS2
Ion mode: POSITIVE
Collision energy: 30 V
Fragmentation mode: CID
Ionization: ESI
Column name: InertSustain C18 ID 2.1 microm, 2.1 x 100 mm (GL Science, Tokyo, Japan).
Retention time: 8.284 min
Precursor m/z: 313.148128
Precursor type: [M+H]+
m/z	relative intensity
42.3	79
58.3	27
84.3	562
85.3	15
94.3	11
158.4	14
169.1	51
179.0	14
180.1	52
182.2	18
186.1	35
195.1	37
198.1	172
200.1	11
212.1	24
213.1	246
214.1	20
222.1	35
223.2	26
224.3	18
227.2	27
230.2	21
239.2	23
240.2	10
241.2	13
256.2	999
282.2	143
313.2	71
