Mass spectrum: 5-(Diphenylsilyl)-1-methyl-1H-indole; GC-EI-TOF; MS; POSITIVE; 70 V
Name: 5-(Diphenylsilyl)-1-methyl-1H-indole
Class: Non-natural compound
Formula: C21H19NSi
Exact mass: 313.128672
SMILES: Cn1ccc2cc(ccc12)[SiH](c1ccccc1)c1ccccc1
InChI: InChI=1S/C21H19NSi/c1-22-15-14-17-16-20(12-13-21(17)22)23(18-8-4-2-5-9-18)19-10-6-3-7-11-19/h2-16,23H,1H3
Instrument: JMS-T100GCV (JEOL, Akishima, Japan) coupled to Agilent 7890A (Santa Clara, CA, USA) gas chromatograph.
Instrument type: GC-EI-TOF
Ms type: MS
Ion mode: POSITIVE
Ionization: EI
Column name: ZB1-MS 7HM-G011-11 sn:313446 (Agilent, Wilmington, USA) with the length 30.0 m, I.D. 0.32 mm, and thickness 0.25 micrometer.
Retention time: 12.36 min
m/z	relative intensity
27.024	4
27.978	4
28.007	11
28.986	6
31.99	6
39.025	11
42.035	9
43.001	3
43.993	3
50.017	10
51.025	40
52.032	13
52.986	62
53.04	3
53.985	6
55.001	6
55.055	2
62.017	3
63.025	13
65.04	5
65.994	6
67.001	6
74.018	3
75.025	5
76.033	10
76.986	11
77.041	77
77.993	4
78.049	113
78.113	2
78.519	3
79.002	51
79.053	10
80.004	6
80.055	1
81.016	3
87.026	3
88.032	4
89.041	23
89.993	3
90.047	10
91.001	6
91.056	30
92.007	3
93.017	3
101.041	6
102.049	24
103.002	44
103.056	37
103.527	3
104.007	12
104.054	5
104.535	2
105.017	441
106.019	54
107.016	17
108.027	3
109.526	4
110.03	25
110.531	5
114.04	4
115.055	25
116.01	7
116.054	10
116.534	18
117.02	18
117.542	116
117.625	2
118.043	28
118.541	7
119.029	5
126.048	3
127.056	5
128.054	19
129.017	32
129.061	13
130.017	22
130.067	121
131.032	24
131.075	102
132.03	22
132.079	12
133.032	5
134.042	5
135.047	3
139.057	9
140.056	3
141.018	4
141.07	2
142.018	7
143.023	11
144.028	9
145.03	2
148.046	4
150.047	2
151.056	6
152.064	18
153.018	8
153.071	9
153.541	3
154.024	6
154.076	9
154.549	8
155.033	40
155.557	8
156.029	158
156.294	1
156.565	22
157.032	29
158.043	62
159.046	11
160.046	3
163.056	7
164.063	6
165.019	2
165.072	41
166.025	4
166.074	9
167.032	13
167.084	9
168.035	4
168.086	3
169.04	3
170.045	2
176.064	5
177.016	2
177.069	5
178.024	2
178.079	13
179.034	19
179.084	6
180.041	82
180.167	2
181.048	304
182.053	88
182.239	1
183.061	42
183.159	2
184.062	8
185.062	2
189.071	5
190.068	9
191.032	19
191.076	11
192.038	14
193.046	26
194.048	9
195.055	5
196.059	2
203.033	2
203.075	2
204.083	40
205.048	16
206.046	20
206.099	29
206.235	1
207.062	47
207.106	41
208.067	27
209.073	12
210.075	11
211.079	3
216.034	2
217.041	6
218.044	15
219.051	47
220.058	42
221.062	11
222.071	6
230.045	10
231.051	4
232.059	46
233.067	105
233.197	2
233.333	2
234.075	383
234.206	11
235.082	476
236.089	524
236.793	1
236.853	1
237.091	110
237.216	2
237.309	1
238.089	24
239.089	8
240.09	2
241.049	3
243.055	2
257.074	1
265.047	3
266.052	2
267.061	4
268.066	3
269.076	2
270.076	2
281.056	4
282.06	2
283.088	1
293.066	3
294.073	6
295.079	5
296.091	9
297.096	5
298.106	10
299.106	2
308.09	3
310.106	15
311.11	6
312.122	185
312.372	2
313.129	999
313.762	2
314.131	269
315.13	65
316.131	10
