Mass spectrum: Cumyruron; LC-ESI-QTOF; MS2; [M+H]+; CID; CE 20V
Name: Cumyruron
Class: Non-natural product
Formula: C17H19ClN2O
Exact mass: 302.118591
SMILES: CC(C)(C1=CC=CC=C1)NC(=O)NCC2=CC=CC=C2Cl
InChI: InChI=1S/C17H19ClN2O/c1-17(2,14-9-4-3-5-10-14)20-16(21)19-12-13-8-6-7-11-15(13)18/h3-11H,12H2,1-2H3,(H2,19,20,21)
Instrument: X500R QTOF (AB Sciex LLC, MA, USA) coupled to ExionLC AD (AB Sciex LLC, MA, USA).
Instrument type: LC-ESI-QTOF
Ms type: MS2
Ion mode: POSITIVE
Collision energy: 20 V
Fragmentation mode: CID
Ionization: ESI
Column name: TSKgel ODS-100S 5 um, 2.1 mm Ã— 250 mm, TOSOH
Retention time: 14.8 min
Precursor m/z: 303.125868
Precursor type: [M+H]+
m/z	relative intensity
73.0393	66
91.054	105
119.0851	563
125.0149	339
185.047	999
