Mass spectrum: (3aS,4R,6R,6aR)-3a,4-dihydroxy-3,3,6-trimethylhexahydro-1H-cyclopenta[c]furan-1-one; GC-FI-TOF; MS; POSITIVE; 10 kV
Name: (3aS,4R,6R,6aR)-3a,4-dihydroxy-3,3,6-trimethylhexahydro-1H-cyclopenta[c]furan-1-one
Class: Non-natural compound
Formula: C10H16O4
Exact mass: 200.104859
SMILES: CC1(C)OC(=O)[C@@H]2[C@H](C)C[C@@H](O)[C@@]21O
InChI: InChI=1S/C10H16O4/c1-5-4-6(11)10(13)7(5)8(12)14-9(10,2)3/h5-7,11,13H,4H2,1-3H3/t5-,6-,7+,10-/m1/s1
Instrument: JMS-T100GCV (JEOL, Akishima, Japan) coupled to Agilent 7890A (Santa Clara, CA, USA) gas chromatograph.
Instrument type: GC-FI-TOF
Ms type: MS
Ion mode: POSITIVE
Ionization: FI
Column name: HP-5 19091J-413 USD364547H (Agilent, Wilmington, USA) with the length 30.0 m, I.D. 0.32 mm, and thickness 0.25 micrometer.
Retention time: 9.04 min
m/z	relative intensity
96.055	7
114.065	4
130.058	68
131.06	5
155.069	4
172.11	369
173.114	37
174.116	5
182.093	19
183.099	7
199.097	61
200.105	999
200.382	3
200.721	3
200.804	3
201.111	254
201.82	2
202.113	29
