Mass spectrum: Chlordiazepoxide; LC-ESI-QQ; MS2; ESI; POSITIVE; CE 20 V; [M+H]+
Name: Chlordiazepoxide
Class: Non-natural product
Formula: C16H14ClN3O
Exact mass: 299.08252
SMILES: CN=C1CN(C(=C2C=C(C=CC2=N1)Cl)C3=CC=CC=C3)O
InChI: InChI=1S/C16H14ClN3O/c1-18-15-10-20(21)16(11-5-3-2-4-6-11)13-9-12(17)7-8-14(13)19-15/h2-9,21H,10H2,1H3
Instrument: LCMS-8040 coupled to Nexera XR (Shimadzu, Kyoto, Japan).
Instrument type: LC-ESI-QQ
Ms type: MS2
Ion mode: POSITIVE
Collision energy: 20 V
Ionization: ESI
Column name: InertSustain C18 ID 2.1 microm, 2.1 x 100 mm (GL Science, Tokyo, Japan).
Retention time: 9.393 min
Precursor m/z: 300.08981
Precursor type: [M+H]+
m/z	relative intensity
57	50
60	18
165	13
180	18
192	13
220	13
227	999
231	15
241	273
242	12
255	192
266	118
269	91
282	204
283	545
300	59
