Mass spectrum: Fludiazepam; LC-ESI-QQ; MS; ESI; POSITIVE
Name: Fludiazepam
Class: Non-natural product
Formula: C16H12ClFN2O
Exact mass: 302.062211
SMILES: CN1C(=O)CN=C(C2=C1C=CC(=C2)Cl)C3=CC=CC=C3F
InChI: InChI=1S/C16H12ClFN2O/c1-20-14-7-6-10(17)8-12(14)16(19-9-15(20)21)11-4-2-3-5-13(11)18/h2-8H,9H2,1H3
Instrument: LCMS-8040 coupled to Nexera XR (Shimadzu, Kyoto, Japan).
Instrument type: LC-ESI-QQ
Ms type: MS
Ion mode: POSITIVE
Ionization: ESI
Column name: InertSustain C18 ID 2.1 microm, 2.1 x 100 mm (GL Science, Tokyo, Japan).
Retention time: 9.408 min
m/z	relative intensity
223.2	15
303.2	999
304.2	178
305.2	345
306.2	65
