Mass spectrum: 6-(4-{[4-(tetradecanoylamino)butyl]amino}-4-oxobutanamido)-N,N-dimethylhexan-1-amine N-oxide; ESI-QTOF; MS2; ESI; [M+H]+; CE 40 V
Name: 6-(4-{[4-(tetradecanoylamino)butyl]amino}-4-oxobutanamido)-N,N-dimethylhexan-1-amine N-oxide
Name: AAO 13-4-2-6
Class: Non-natural product
Formula: C30H60N4O4
Exact mass: 540.461440
SMILES: [O-][N+](C)(C)CCCCCCNC(=O)CCC(=O)NCCCCNC(=O)CCCCCCCCCCCCC
InChI: InChI=1S/C30H60N4O4/c1-4-5-6-7-8-9-10-11-12-13-16-21-28(35)31-25-18-19-26-33-30(37)23-22-29(36)32-24-17-14-15-20-27-34(2,3)38/h4-27H2,1-3H3,(H,31,35)(H,32,36)(H,33,37)
Instrument: X500R QTOF (AB Sciex LLC, MA, USA)
Instrument type: ESI-QTOF
Ms type: MS2
Ion mode: POSITIVE
Collision energy: 40 V
Fragmentation mode: CID
Ionization: ESI
Precursor m/z: 541.468717 
Precursor type: [M+H]+
m/z	relative intensity
58.06488	10
98.09615	12
100.03904	11
100.11179	15
114.12743	6
154.08598	12
161.16456	18
171.11253	32
182.11727	60
227.17507	17
243.17004	19
270.21725	14
282.27852	280
299.30519	98
331.26995	17
381.31049	136
462.40456	47
480.41505	36
523.45714	28
541.46672	999
