Mass spectrum: Fludiazepam; LC-ESI-QQ; MS2; ESI; POSITIVE; CID; CE 30 V; [M+H]+
Name: Fludiazepam
Class: Non-natural product
Formula: C16H12ClFN2O
Exact mass: 302.062211
SMILES: CN1C(=O)CN=C(C2=C1C=CC(=C2)Cl)C3=CC=CC=C3F
InChI: InChI=1S/C16H12ClFN2O/c1-20-14-7-6-10(17)8-12(14)16(19-9-15(20)21)11-4-2-3-5-13(11)18/h2-8H,9H2,1H3
Instrument: LCMS-8040 coupled to Nexera XR (Shimadzu, Kyoto, Japan).
Instrument type: LC-ESI-QQ
Ms type: MS2
Ion mode: POSITIVE
Collision energy: 30 V
Fragmentation mode: CID
Ionization: ESI
Column name: InertSustain C18 ID 2.1 microm, 2.1 x 100 mm (GL Science, Tokyo, Japan).
Retention time: 9.408 min
Precursor m/z: 303.069488
Precursor type: [M+H]+
m/z	relative intensity
30.3	20
58.2	69
91.3	13
109.2	87
116.2	27
117.2	98
118.3	38
119.3	15
122.1	35
123.2	114
125.1	51
127.1	11
134.2	35
139.1	11
140.1	33
143.2	19
144.2	11
147.2	41
150.1	18
152.1	20
154.2	816
164.2	11
165.1	12
167.1	95
172.2	41
177.2	28
179.2	47
180.1	117
182.2	68
199.3	11
205.2	21
209.1	19
211.2	999
212.2	11
214.0	23
219.2	34
220.1	38
221.2	11
224.2	15
225.2	31
226.2	13
234.2	36
239.2	91
240.2	506
245.2	99
246.1	193
248.3	36
258.1	13
259.1	171
260.2	10
268.1	16
273.2	122
274.1	31
275.2	144
303.2	699
