Mass spectrum: Temazepam; LC-ESI-QQ; MS2; ESI; POSITIVE; CID; CE 50 V; [M+H]+
Name: Temazepam
Class: Non-natural product
Formula: C16H13ClN2O2
Exact mass: 300.06655
SMILES: CN1C2=C(C=C(C=C2)Cl)C(=NC(C1=O)O)C3=CC=CC=C3
InChI: InChI=1S/C16H13ClN2O2/c1-19-13-8-7-11(17)9-12(13)14(18-15(20)16(19)21)10-5-3-2-4-6-10/h2-9,15,20H,1H3
Instrument: LCMS-8040 coupled to Nexera XR (Shimadzu, Kyoto, Japan).
Instrument type: LC-ESI-QQ
Ms type: MS2
Ion mode: POSITIVE
Collision energy: 50 V
Fragmentation mode: CID
Ionization: ESI
Column name: InertSustain C18 ID 2.1 microm, 2.1 x 100 mm (GL Science, Tokyo, Japan).
Retention time: 9.147 min
Precursor m/z: 301.07383
Precursor type: [M+H]+
m/z	relative intensity
42.3	12
51.1	17
58.2	24
63.3	52
65.3	68
74.0	12
75.3	24
77.3	730
79.4	24
85.0	16
89.2	495
90.3	345
91.2	75
99.2	145
100.1	91
102.2	30
103.0	67
104.2	115
105.0	30
106.2	43
106.9	24
109.2	42
111.1	321
114.0	31
116.2	28
117.1	164
123.1	169
125.1	545
127.1	93
128.2	17
132.2	24
136.1	443
137.2	19
138.2	53
139.1	36
140.1	12
141.2	21
142.2	108
150.1	272
151.1	386
152.2	191
163.1	12
164.0	12
165.2	424
166.2	101
167.1	29
177.0	999
178.2	168
179.3	134
180.1	127
181.2	24
187.1	29
190.1	22
191.0	24
192.2	243
193.1	360
194.4	23
202.9	19
205.1	392
206.2	40
208.1	12
212.8	12
214.2	48
216.1	12
217.7	27
219.1	80
220.0	12
221.3	17
226.9	29
228.1	130
228.9	65
239.1	383
241.4	12
243.2	22
253.2	54
255.0	531
