Mass spectrum: Thiodicarb; LC-ESI-QTOF; MS2; [M+H]+; CID; CE 60V
Name: Thiodicarb
Class: Non-natural product
Formula: C10H18N4O4S3
Exact mass: 354.049019
SMILES: C/C(=N\OC(=O)N(SN(C(=O)O/N=C(/SC)\C)C)C)/SC
InChI: InChI=1S/C10H18N4O4S3/c1-7(19-5)11-17-9(15)13(3)21-14(4)10(16)18-12-8(2)20-6/h1-6H3/b11-7+,12-8+
Instrument: X500R QTOF (AB Sciex LLC, MA, USA) coupled to ExionLC AD (AB Sciex LLC, MA, USA).
Instrument type: LC-ESI-QTOF
Ms type: MS2
Ion mode: POSITIVE
Collision energy: 60 V
Fragmentation mode: CID
Ionization: ESI
Column name: TSKgel ODS-100S 5 um, 2.1 mm Ã— 250 mm, TOSOH
Retention time: 13.2 min
Precursor m/z: 355.056296
Precursor type: [M+H]+
m/z	relative intensity
42.0337	138
44.9793	84
46.9949	231
56.0495	91
59.9902	73
62.0058	162
72.9981	318
78.9671	172
88.0214	999
