Mass spectrum: Etizolam; LC-ESI-QQ; MS2; ESI; POSITIVE; CE 30 V; [M+H]+
Name: Etizolam
Class: Non-natural product
Formula: C17H15ClN4S
Exact mass: 342.07058
SMILES: CCC1=CC2=C(S1)N3C(=NN=C3CN=C2C4=CC=CC=C4Cl)C
InChI: InChI=1S/C17H15ClN4S/c1-3-11-8-13-16(12-6-4-5-7-14(12)18)19-9-15-21-20-10(2)22(15)17(13)23-11/h4-8H,3,9H2,1-2H3
Instrument: LCMS-8040 coupled to Nexera XR (Shimadzu, Kyoro, Japan).
Instrument type: LC-ESI-QQ
Ms type: MS2
Ion mode: POSITIVE
Collision energy: 30 V
Ionization: ESI
Column name: InertSustain C18 ID 2.1 microm, 2.1 x 100 mm (GL Science, Tokyo, Japan).
Retention time: 9.049 min
Precursor m/z: 343.07786
Precursor type: [M+H]+
m/z	relative intensity
57	13
72	13
85	18
91	13
93	12
94	17
96	12
97	26
107	13
111	13
118	16
123	31
125	12
134	19
138	200
148	14
151	19
158	23
159	19
162	36
165	46
171	17
172	16
176	13
177	13
178	21
191	61
199	10
201	13
204	14
206	106
211	19
213	14
223	59
224	39
225	29
227	20
232	26
233	15
234	10
236	10
237	12
238	65
239	84
241	15
245	29
246	21
248	42
249	15
250	48
252	18
256	13
257	13
259	150
260	16
264	23
265	15
266	41
268	23
269	14
272	12
273	26
274	144
275	111
278	12
279	71
282	33
283	12
285	44
287	29
289	15
290	33
292	19
293	138
295	82
300	18
307	66
308	33
309	63
310	68
313	19
314	999
315	76
326	11
327	13
328	33
343	169
