Mass spectrum: Pyriftalid; LC-ESI-QTOF; MS2; [M+H]+; CID; CE 40V
Name: Pyriftalid
Class: Non-natural product
Formula: C15H14N2O4S
Exact mass: 318.067428
SMILES: CC1C2=C(C(=CC=C2)SC3=NC(=CC(=N3)OC)OC)C(=O)O1
InChI: InChI=1S/C15H14N2O4S/c1-8-9-5-4-6-10(13(9)14(18)21-8)22-15-16-11(19-2)7-12(17-15)20-3/h4-8H,1-3H3
Instrument: X500R QTOF (AB Sciex LLC, MA, USA) coupled to ExionLC AD (AB Sciex LLC, MA, USA).
Instrument type: LC-ESI-QTOF
Ms type: MS2
Ion mode: POSITIVE
Collision energy: 40 V
Fragmentation mode: CID
Ionization: ESI
Column name: TSKgel ODS-100S 5 um, 2.1 mm Ã— 250 mm, TOSOH
Retention time: 14.3 min
Precursor m/z: 319.074705
Precursor type: [M+H]+
m/z	relative intensity
71.0602	69
83.0237	222
91.0541	71
93.0083	116
100.0393	51
109.0393	50
123.0261	62
125.0344	134
135.026	182
139.0498	999
140.0341	127
141.9957	70
151.0211	159
152.0493	72
157.0604	438
161.0055	182
163.0211	266
174.0369	209
176.0528	87
179.0157	818
188.0164	89
192.0478	91
196.0391	175
202.0321	211
220.0425	368
230.0509	139
241.0431	168
269.0378	429
273.069	432
287.0486	120
301.064	363
319.0746	460
