Mass spectrum: Brotizolam; LC-ESI-QQ; MS2; ESI; POSITIVE; CID; CE 50 V; [M+H]+
Name: Brotizolam
Class: Non-natural product
Formula: C15H10BrClN4S
Exact mass: 391.949792
SMILES: CC1=NN=C2N1C3=C(C=C(S3)Br)C(=NC2)C4=CC=CC=C4Cl
InChI: InChI=1S/C15H10BrClN4S/c1-8-19-20-13-7-18-14(9-4-2-3-5-11(9)17)10-6-12(16)22-15(10)21(8)13/h2-6H,7H2,1H3
Instrument: LCMS-8040 coupled to Nexera XR (Shimadzu, Kyoto, Japan).
Instrument type: LC-ESI-QQ
Ms type: MS2
Ion mode: POSITIVE
Collision energy: 50 V
Fragmentation mode: CID
Ionization: ESI
Column name: InertSustain C18 ID 2.1 microm, 2.1 x 100 mm (GL Science, Tokyo, Japan).
Retention time: 8.988 min
Precursor m/z: 392.957069
Precursor type: [M+H]+
m/z	relative intensity
39.3	46
42.4	198
56.5	41
57.3	214
65.5	48
66.2	91
68.2	46
75.4	48
78.3	159
82.2	69
83.4	32
84.4	86
92.5	83
98.0	48
101.2	56
102.3	204
103.3	24
104.2	69
108.2	187
109.1	999
110.1	48
115.2	48
116.3	46
121.1	24
122.0	48
123.0	129
127.1	24
134.2	280
135.2	122
136.1	295
137.0	270
138.2	134
139.2	199
140.2	79
143.2	24
148.6	45
150.1	96
152.2	114
155.8	48
157.9	24
159.1	48
160.9	48
161.8	96
165.2	154
166.1	442
167.1	192
171.1	264
173.2	48
176.1	123
177.1	345
178.4	147
179.2	264
180.2	183
182.1	24
183.2	271
184.3	64
185.2	24
186.4	43
187.1	34
188.0	147
191.0	121
191.9	69
192.9	44
193.9	48
196.1	154
197.6	43
198.2	48
200.1	48
201.3	129
204.3	43
205.1	214
206.1	176
209.1	414
210.1	601
211.1	513
212.1	56
213.1	214
213.8	85
215.2	24
216.1	48
217.3	45
218.3	94
219.1	66
220.2	48
221.2	197
222.1	58
223.2	470
224.3	95
225.0	22
226.1	192
227.0	48
230.1	48
231.2	79
232.0	48
235.3	303
237.0	144
237.9	141
241.1	91
244.2	296
245.1	451
249.6	48
251.1	48
252.1	48
253.4	48
256.2	73
258.2	321
259.1	341
269.3	96
271.4	96
274.1	48
275.2	64
276.4	24
278.1	48
279.2	102
281.0	24
281.9	129
284.0	48
285.0	157
286.8	24
288.9	289
302.1	96
313.5	36
322.9	24
364.8	87
