Mass spectrum: N1-(4-Ethylphenyl)benzene-1,2-diamine; GC-EI-TOF; MS; POSITIVE; 70 V
Name: N1-(4-Ethylphenyl)benzene-1,2-diamine
Class: Non-natural compound
Formula: C14H16N2
Exact mass: 212.131349
SMILES: CCc1ccc(cc1)Nc1ccccc1N
InChI: InChI=1S/C14H16N2/c1-2-11-7-9-12(10-8-11)16-14-6-4-3-5-13(14)15/h3-10,16H,2,15H2,1H3
Instrument: JMS-T100GCV (JEOL, Akishima, Japan) coupled to Agilent 7890A (Santa Clara, CA, USA) gas chromatograph.
Instrument type: GC-EI-TOF
Ms type: MS
Ion mode: POSITIVE
Ionization: EI
Column name: DB-5MS 122-5532 USA360633H (Agilent, Wilmington, USA) with the length 30.0 m, I.D. 0.25 mm, and thickness 0.25 micrometer.
Retention time: 11.17 min
m/z	relative intensity
27.023	27
28.018	18
29.039	20
30.034	3
38.015	4
39.023	58
40.03	5
41.038	10
42.034	6
50.015	11
51.023	44
52.029	27
53.038	43
54.034	13
62.015	4
63.023	30
64.03	17
65.038	118
66.042	19
67.043	3
71.536	3
74.015	2
75.023	7
76.03	11
77.038	93
78.042	34
79.052	24
80.05	99
81.054	9
83.536	8
84.036	3
84.539	5
85.041	3
89.038	46
89.536	4
90.044	30
91.05	78
91.544	5
92.05	52
93.057	35
94.062	4
96.54	2
97.042	8
97.546	24
98.049	41
98.116	1
98.553	53
99.055	7
101.038	4
102.044	9
103.053	17
104.054	12
105.058	11
106.065	33
107.061	32
108.067	10
114.044	2
115.054	12
116.051	8
117.058	12
118.058	15
119.063	18
120.08	8
121.087	3
126.046	2
127.053	11
128.058	15
129.063	7
130.065	16
131.064	8
132.068	11
139.054	6
140.051	7
141.064	5
142.065	3
143.069	6
144.075	2
145.078	5
151.054	6
152.061	16
153.063	9
154.065	21
155.068	10
156.072	11
157.077	5
158.084	4
164.052	2
165.063	3
166.065	22
167.072	24
168.076	18
169.077	26
170.09	8
171.093	2
177.057	2
178.065	11
179.07	12
180.079	30
181.076	99
182.083	200
183.09	82
184.095	11
191.073	3
192.077	4
193.079	10
194.086	18
195.092	66
196.098	21
197.107	999
197.754	3
198.11	148
198.793	2
199.114	10
199.854	1
207.092	4
208.099	3
209.107	5
210.115	5
211.123	36
211.248	1
212.131	678
212.805	2
213.135	106
213.873	2
214.138	8
214.412	1
