Mass spectrum: (E)-4-(1,1,1,4,4,4-hexafluorobuten-2-yl)benzaldehyde; GC-EI-TOF; MS; POSITIVE; 70 V
Name: (E)-4-(1,1,1,4,4,4-hexafluorobuten-2-yl)benzaldehyde
Class: Non-natural compound
Formula: C11H6F6O
Exact mass: 268.032284
SMILES: O=Cc1ccc(cc1)\C(=C/C(F)(F)F)C(F)(F)F
InChI: InChI=1S/C11H6F6O/c12-10(13,14)5-9(11(15,16)17)8-3-1-7(6-18)2-4-8/h1-6H/b9-5+
Instrument: JMS-T100GCV (JEOL, Akishima, Japan) coupled to Agilent 7890A (Santa Clara, CA, USA) gas chromatograph.
Instrument type: GC-EI-TOF
Ms type: MS
Ion mode: POSITIVE
Ionization: EI
Column name: DB-5MS 122-5532 USA360633H (Agilent, Wilmington, USA) with the length 30.0 m, I.D. 0.25 mm, and thickness 0.25 micrometer.
Retention time: 6.23 min
m/z	relative intensity
27.024	4
28.006	4
30.999	6
37.008	4
38.016	9
39.024	19
49.008	5
50.016	59
51.024	47
52.029	3
56.007	2
57.014	11
60.019	7
61.008	12
62.016	26
63.024	23
68.007	4
68.996	88
70.022	5
73.008	9
74.016	88
74.083	1
75.023	105
75.518	13
76.03	18
77.038	5
78.919	3
80.007	6
80.917	3
81.014	25
82.019	2
84.009	3
84.514	9
85.013	9
86.016	9
87.023	9
88.017	4
92.007	6
93.007	10
94.02	15
94.517	9
95.028	8
96.037	2
97.008	3
98.016	24
99.015	29
100.024	15
101.039	53
102.043	5
104.006	4
105.014	7
106.021	3
107.03	4
109.008	3
110.016	5
111.006	3
112.013	6
113.007	3
116.934	2
117.009	2
118.021	4
118.932	2
119.022	21
119.515	2
120.038	90
121.041	7
123.005	13
124.012	9
124.477	12
125.021	16
125.476	12
126.027	4
127.036	3
128.918	3
129.925	2
130.005	2
130.916	3
131.03	9
132.035	4
137.019	4
138.029	14
139.035	3
142.004	2
143.011	29
144.018	6
145.027	25
149.021	32
149.475	4
150.028	40
150.474	5
151.036	230
152.04	22
156.019	3
162.012	2
163.018	5
167.012	4
168.019	11
169.027	601
169.493	2
169.624	2
170.035	999
170.624	4
171.038	96
171.602	3
172.043	6
172.587	1
173.073	1
173.949	4
175.946	3
179.958	8
180.018	2
181.956	8
187.018	18
188.025	10
189.033	35
190.037	3
197.949	2
199.017	2
199.947	2
200.025	13
201.031	3
218.016	7
219.024	213
220.031	234
220.741	1
221.035	23
222.039	2
228.947	54
229.95	5
230.945	53
231.948	5
238.022	5
239.032	107
240.036	15
246.937	3
248.954	157
249.957	15
250.952	152
251.955	14
278.944	5
280.942	5
298.949	10
300.948	9
317.948	903
318.951	95
319.431	2
319.946	884
320.949	93
321.433	3
321.954	5
322.779	2
323.453	1
