Mass spectrum: Acetaminophen; LC-ESI-QQ; MS2; ESI; NEGATIVE; CID; CE 50 V; [M-H]-
Name: Acetaminophen
Class: Non-natural product
Formula: C8H9NO2
Exact mass: 151.063325
SMILES: CC(=O)NC1=CC=C(C=C1)O
InChI: InChI=1S/C8H9NO2/c1-6(10)9-7-2-4-8(11)5-3-7/h2-5,11H,1H3,(H,9,10)
Instrument: LCMS-8040 coupled to Nexera XR (Shimadzu, Kyoto, Japan).
Instrument type: LC-ESI-QQ
Ms type: MS2
Ion mode: NEGATIVE
Collision energy: 50 V
Fragmentation mode: CID
Ionization: ESI
Column name: InertSustain C18 ID 2.1 microm, 2.1 x 100 mm (GL Science, Tokyo, Japan).
Retention time: 4.203 min
Precursor m/z: 150.056048
Precursor type: [M-H]-
m/z	relative intensity
41.4	341
42.1	311
91.8	459
92.9	341
106.8	999
107.6	339
117.9	341
133.9	170
149.9	484
