Mass spectrum: Azoxystrobin; LC-ESI-QTOF; MS2; [M+H]+; CID; CE 60V
Name: Azoxystrobin
Class: Non-natural product
Formula: C22H17N3O5
Exact mass: 403.116821
SMILES: CO/C=C(\C1=CC=CC=C1OC2=NC=NC(=C2)OC3=CC=CC=C3C#N)/C(=O)OC
InChI: InChI=1S/C22H17N3O5/c1-27-13-17(22(26)28-2)16-8-4-6-10-19(16)30-21-11-20(24-14-25-21)29-18-9-5-3-7-15(18)12-23/h3-11,13-14H,1-2H3/b17-13+
Instrument: X500R QTOF (AB Sciex LLC, MA, USA) coupled to ExionLC AD (AB Sciex LLC, MA, USA).
Instrument type: LC-ESI-QTOF
Ms type: MS2
Ion mode: POSITIVE
Collision energy: 60 V
Fragmentation mode: CID
Ionization: ESI
Column name: TSKgel ODS-100S 5 um, 2.1 mm Ã— 250 mm, TOSOH
Retention time: 14.1 min
Precursor m/z: 404.124098
Precursor type: [M+H]+
m/z	relative intensity
89.0386	106
102.0338	67
104.0492	114
114.0338	85
116.0494	122
120.0442	102
127.0415	71
128.0494	78
129.044	277
130.0389	275
133.0517	235
134.0596	234
141.0447	104
143.0594	124
144.0443	162
145.0518	198
155.0597	110
156.0439	910
169.0398	85
170.0475	105
171.0549	254
172.0388	999
182.0473	100
183.0548	610
199.0498	353
200.034	528
201.0417	170
210.0426	230
211.0499	102
245.0713	116
272.0815	443
273.0727	246
300.0764	483
301.0842	301
328.0712	944
328.1027	65
329.0789	506
