Mass spectrum: (6E)-8-(Trifluoromethyl)-6-tetradecene; GC-EI-TOF; MS; POSITIVE; 70 V
Name: (6E)-8-(Trifluoromethyl)-6-tetradecene
Class: Non-natural compound
Formula: C15H27F3
Exact mass: 264.206484
SMILES: CCCCCCC(\C=C\CCCCC)C(F)(F)F
InChI: InChI=1S/C15H27F3/c1-3-5-7-9-11-13-14(15(16,17)18)12-10-8-6-4-2/h11,13-14H,3-10,12H2,1-2H3/b13-11+
Instrument: JMS-T100GCV (JEOL, Akishima, Japan) coupled to Agilent 7890A (Santa Clara, CA, USA) gas chromatograph.
Instrument type: GC-EI-TOF
Ms type: MS
Ion mode: POSITIVE
Ionization: EI
Column name: ZB-1MS 7HM-G011-11 sn:313446 (Agilent, Wilmington, USA) with the length 30.0 m, I.D. 0.25 mm, and thickness 0.25 micrometer.
Retention time: 7.93 min
m/z	relative intensity
27.023	129
27.065	1
28.006	18
28.031	21
29.039	350
29.083	4
30.042	7
31.99	11
39.023	81
40.031	14
41.039	698
41.09	6
41.165	1
41.323	2
41.355	2
41.569	1
42.047	341
42.097	4
42.33	1
43.055	999
43.108	10
43.378	3
43.596	2
43.844	1
44.058	30
47.03	9
51.004	3
51.023	5
52.03	3
53.039	45
54.047	76
55.055	720
55.115	7
55.381	2
55.42	2
55.653	1
55.708	1
56.062	827
56.124	8
56.397	2
56.431	2
57.014	3
57.07	559
57.13	5
57.22	1
58.074	22
59.03	28
61.045	8
65.039	12
66.046	7
67.055	83
68.062	39
69.07	383
69.136	4
70.078	618
70.446	2
70.491	2
71.029	4
71.085	143
72.038	8
72.089	7
73.045	16
77.02	41
78.046	3
79.055	25
80.062	5
81.07	44
82.078	22
83.03	7
83.086	245
83.214	1
84.038	2
84.093	209
85.045	13
85.101	72
85.178	1
86.104	4
87.061	4
89.02	11
90.028	14
91.05	9
93.07	7
95.025	7
95.086	28
96.093	8
97.045	19
97.101	135
98.051	3
98.109	51
99.061	6
99.114	4
101.02	6
102.028	3
103.036	29
104.042	3
105.06	2
107.086	3
109.041	10
109.101	9
111.061	16
111.117	11
112.124	5
113.077	4
114.029	2
115.036	20
117.052	29
118.056	2
121.027	9
121.102	3
122.034	29
123.042	14
123.116	4
125.076	9
125.132	3
126.14	2
127.036	6
127.092	3
129.052	4
130.057	2
131.067	46
132.07	3
135.042	14
135.117	4
136.049	9
137.058	9
139.09	2
141.109	2
145.083	24
146.087	2
149.058	16
149.133	2
150.065	32
151.073	90
151.16	1
152.078	10
153.088	2
159.098	7
163.074	12
164.081	23
165.089	82
166.094	9
167.104	2
177.089	5
178.096	8
179.105	25
180.111	6
192.112	7
193.12	14
194.127	4
206.128	4
207.135	4
208.142	3
221.15	2
222.16	4
236.175	4
264.206	84
265.21	12
