Mass spectrum: Cloxazolam; LC-ESI-QQ; MS2; ESI; POSITIVE; CE 30 V; [M+H]+
Name: Cloxazolam
Class: Non-natural product
Formula: C17H14Cl2N2O2
Exact mass: 348.04323
SMILES: C1COC2(N1CC(=O)NC3=C2C=C(C=C3)Cl)C4=CC=CC=C4Cl
InChI: InChI=1S/C17H14Cl2N2O2/c18-11-5-6-15-13(9-11)17(12-3-1-2-4-14(12)19)21(7-8-23-17)10-16(22)20-15/h1-6,9H,7-8,10H2,(H,20,22)
Instrument: LCMS-8040 coupled to Nexera XR (Shimadzu, Kyoto, Japan).
Instrument type: LC-ESI-QQ
Ms type: MS2
Ion mode: POSITIVE
Collision energy: 30 V
Ionization: ESI
Column name: InertSustain C18 ID 2.1 microm, 2.1 x 100 mm (GL Science, Tokyo, Japan).
Retention time: 9.919 min
Precursor m/z: 349.05050
Precursor type: [M+H]+
m/z	relative intensity
45	89
56	43
77	10
117	10
125	80
126	31
133	45
138	30
139	21
140	593
149	12
150	15
152	10
158	25
165	60
166	108
168	28
177	10
178	33
179	10
181	10
192	10
206	20
214	60
226	21
227	91
228	52
235	21
240	10
241	181
242	178
248	21
250	30
252	65
260	21
261	16
264	10
275	15
276	44
277	15
287	15
295	10
305	999
321	31
349	326
