Mass spectrum: 4-(4-{[2-(tetradecanoylamino)ethyl]amino}-4-oxobutanamido)-N,N-dimethylbutan-1-amine N-oxide; ESI-QTOF; MS2; ESI; [M-H]-; CE 60 V
Name: 4-(4-{[2-(tetradecanoylamino)ethyl]amino}-4-oxobutanamido)-N,N-dimethylbutan-1-amine N-oxide
Name: AAO 13-2-2-4
Class: Non-natural product
Formula: C26H52N4O4
Exact mass: 484.398840
SMILES: O=C(NCCNC(=O)CCCCCCCCCCCCC)CCC(=O)NCCCC[N+]([O-])(C)C
InChI: InChI=1S/C26H52N4O4/c1-4-5-6-7-8-9-10-11-12-13-14-17-24(31)28-21-22-29-26(33)19-18-25(32)27-20-15-16-23-30(2,3)34/h4-23H2,1-3H3,(H,27,32)(H,28,31)(H,29,33)
Instrument: X500R QTOF (AB Sciex LLC, MA, USA)
Instrument type: ESI-QTOF
Ms type: MS2
Ion mode: NEGATIVE
Collision energy: 60 V
Fragmentation mode: CID
Ionization: ESI
Precursor m/z: 483.391563
Precursor type: [M-H]-
m/z	relative intensity
41.99834	86
70.02970	26
82.02967	21
97.04045	76
98.02460	999
101.07183	16
113.07185	69
115.05120	26
122.07210	21
123.05608	16
140.08272	248
141.06678	117
151.08742	17
152.07157	91
153.10312	33
154.08715	32
158.09332	85
181.09813	22
209.19094	25
226.21739	114
240.23310	76
269.25966	537
