Mass spectrum: 1-[[(2-Methyloctyl)thio]methyl]-4-[(methylthio)methyl]cyclohexane; GC-EI-TOF; MS; POSITIVE; 70 V
Name: 1-[[(2-Methyloctyl)thio]methyl]-4-[(methylthio)methyl]cyclohexane
Class: Non-natural compound
Formula: C18H36S2
Exact mass: 316.225842
SMILES: CSCC1CCC(CSCC(C)CCCCCC)CC1
InChI: InChI=1S/C18H36S2/c1-4-5-6-7-8-16(2)13-20-15-18-11-9-17(10-12-18)14-19-3/h16-18H,4-15H2,1-3H3
Instrument: JMS-T100GCV (JEOL, Akishima, Japan) coupled to Agilent 7890A (Santa Clara, CA, USA) gas chromatograph.
Instrument type: GC-EI-TOF
Ms type: MS
Ion mode: POSITIVE
Ionization: EI
Column name: HP-5 19091J-413 USD364547H (Agilent, Wilmington, USA) with the length 30.0 m, I.D. 0.32 mm, and thickness 0.25 micrometer.
Retention time: 11.65 min
m/z	relative intensity
27.025	62
28.008	6
28.033	8
29.041	165
30.044	3
31.991	3
34.997	18
39.026	54
40.033	10
41.041	427
41.327	1
42.048	56
43.057	493
43.345	1
44.06	15
44.982	46
45.99	16
46.998	59
48.006	8
49.014	5
51.026	4
53.041	61
54.049	49
55.057	355
56.064	77
57.073	242
57.176	1
58.076	10
58.998	17
60.006	12
61.013	613
61.164	1
61.355	1
61.398	2
62.018	24
63.009	26
65.041	27
66.049	17
67.057	397
68.063	44
69.073	185
70.079	29
70.998	6
71.088	149
72.006	5
72.092	8
73.014	24
74.021	16
75.029	28
77.042	43
78.049	17
79.057	273
80.064	94
81.073	133
82.078	14
83.088	62
84.095	14
85.014	33
85.104	62
86.021	7
86.107	4
87.029	34
88.036	5
89.045	8
91.057	73
92.063	12
93.073	279
94.079	50
95.088	160
95.49	1
96.092	13
97.014	6
97.104	10
98.111	4
99.03	16
100.036	3
101.045	20
102.052	7
103.059	4
105.073	21
106.078	3
107.088	179
108.096	999
108.608	3
109.103	553
110.107	44
111.117	4
113.044	25
114.049	3
115.06	6
125.135	2
126.143	3
127.061	8
128.068	3
129.076	3
141.076	336
142.083	796
142.671	2
143.089	147
143.521	1
144.081	37
145.086	6
155.092	22
156.099	106
157.107	73
157.209	1
158.113	31
159.122	23
160.122	3
171.123	4
173.138	32
174.142	4
183.123	4
189.079	2
191.095	2
203.094	3
231.125	2
267.217	2
268.223	16
269.231	370
270.234	69
271.23	21
272.232	3
315.218	2
316.226	60
317.229	12
318.223	6
