Mass spectrum: Olmesartan medoxomil; LC-ESI-QQ; MS2; ESI; POSITIVE; CID; CE 50 V; [M+H]+
Name: Olmesartan medoxomil
Class: Non-natural product
Formula: C29H30N6O6
Exact mass: 558.22266
SMILES: CCCC1=NC(=C(N1CC2=CC=C(C=C2)C3=CC=CC=C3C4=NNN=N4)C(=O)OCC5=C(OC(=O)O5)C)C(C)(C)O
InChI: InChI=1S/C29H30N6O6/c1-5-8-23-30-25(29(3,4)38)24(27(36)39-16-22-17(2)40-28(37)41-22)35(23)15-18-11-13-19(14-12-18)20-9-6-7-10-21(20)26-31-33-34-32-26/h6-7,9-14,38H,5,8,15-16H2,1-4H3,(H,31,32,33,34)
Instrument: LCMS-8040 coupled to Nexera XR (Shimadzu, Kyoto, Japan).
Instrument type: LC-ESI-QQ
Ms type: MS2
Ion mode: POSITIVE
Collision energy: 50 V
Fragmentation mode: CID
Ionization: ESI
Column name: InertSustain C18 ID 2.1 microm, 2.1 x 100 mm (GL Science, Tokyo, Japan).
Retention time: 8.511 min
Precursor m/z: 559.229937
Precursor type: [M+H]+
m/z	relative intensity
79.6	23
80.3	39
105.3	10
115.4	20
129.1	12
140.3	18
149.2	15
151.2	16
153.2	119
163.1	10
165.3	45
166.1	10
167.3	43
177.3	245
178.2	254
179.2	91
180.2	266
188.2	10
190.2	179
191.2	119
192.1	228
195.4	35
205.2	109
206.2	161
207.2	999
208.2	19
217.0	10
233.3	34
234.7	19
274.4	20
