Mass spectrum: Lormetazepam; LC-ESI-QQ; MS; ESI; NEGATIVE
Name: Lormetazepam
Class: Non-natural product
Formula: C16H12Cl2N2O2
Exact mass: 334.027576
SMILES: CN1C2=C(C=C(C=C2)Cl)C(=NC(C1=O)O)C3=CC=CC=C3Cl
InChI: InChI=1S/C16H12Cl2N2O2/c1-20-13-7-6-9(17)8-11(13)14(19-15(21)16(20)22)10-4-2-3-5-12(10)18/h2-8,15,21H,1H3
Instrument: LCMS-8040 coupled to Nexera XR (Shimadzu, Kyoto, Japan).
Instrument type: LC-ESI-QQ
Ms type: MS
Ion mode: NEGATIVE
Ionization: ESI
Column name: InertSustain C18 ID 2.1 microm, 2.1 x 100 mm (GL Science, Tokyo, Japan).
Retention time: 9.178 min
m/z	relative intensity
100.0	10
100.9	51
102.1	20
102.9	15
104.9	13
112.9	64
114.0	11
116.9	53
118.9	24
127.9	15
129.0	32
131.0	21
133.2	20
134.3	12
135.1	25
141.1	13
143.1	27
144.7	43
147.0	15
151.0	12
153.1	28
155.0	26
156.0	14
157.1	15
159.8	21
161.0	34
163.1	42
165.1	36
166.1	11
167.0	29
169.0	27
172.1	16
173.1	34
177.1	12
181.1	23
184.9	13
187.0	18
190.8	16
193.1	36
197.0	26
199.1	27
201.0	29
204.5	11
205.2	11
211.2	34
213.0	15
214.9	42
216.3	29
218.6	14
221.1	77
224.1	17
224.9	13
227.1	23
229.1	32
231.1	16
235.1	19
236.2	13
238.3	10
239.2	14
241.2	28
242.2	32
243.1	12
245.2	25
247.0	25
249.0	31
251.1	52
253.2	18
255.3	20
256.5	18
257.2	15
260.9	17
263.1	18
265.3	11
267.2	21
269.2	39
270.9	33
276.0	246
278.0	144
279.1	35
280.9	18
282.2	16
284.2	15
285.2	20
287.0	22
288.0	13
288.8	11
291.1	25
299.0	18
300.3	23
301.2	38
303.3	26
304.4	34
305.1	65
307.0	64
308.2	19
309.2	31
310.3	13
311.3	29
313.2	27
316.1	12
317.4	17
318.9	24
320.1	18
321.2	40
323.2	46
325.0	30
326.3	10
327.0	13
329.3	10
333.1	999
334.1	245
335.0	646
336.0	131
337.0	150
338.2	24
339.2	43
340.7	11
343.4	13
345.2	16
348.0	21
349.0	11
353.3	31
354.9	22
357.3	14
360.2	17
362.2	14
363.2	27
365.1	58
366.2	15
367.0	37
369.1	37
371.0	12
372.9	16
374.8	21
377.4	16
379.1	46
380.4	23
381.3	20
382.1	20
383.1	23
387.0	10
389.1	13
390.2	11
391.1	29
392.3	11
393.1	17
397.1	22
398.3	13
400.9	31
402.9	12
404.2	13
405.2	20
406.4	11
407.2	20
413.3	12
415.0	14
417.1	30
418.0	13
419.4	14
422.8	17
424.4	11
433.3	15
434.1	10
439.3	11
441.0	18
447.2	12
449.1	15
451.0	25
462.1	11
473.2	13
480.3	11
607.1	10
