Mass spectrum: Cyproheptadine; LC-ESI-QQ; MS2; ESI; POSITIVE; CID; CE 30 V; [M+H]+
Name: Cyproheptadine
Class: Non-natural product
Formula: C21H21N
Exact mass: 287.167395
SMILES: CN1CCC(=C2C3=CC=CC=C3C=CC4=CC=CC=C42)CC1
InChI: InChI=1S/C21H21N/c1-22-14-12-18(13-15-22)21-19-8-4-2-6-16(19)10-11-17-7-3-5-9-20(17)21/h2-11H,12-15H2,1H3
Instrument: LCMS-8040 coupled to Nexera XR (Shimadzu, Kyoto, Japan).
Instrument type: LC-ESI-QQ
Ms type: MS2
Ion mode: POSITIVE
Collision energy: 30 V
Fragmentation mode: CID
Ionization: ESI
Column name: InertSustain C18 ID 2.1 microm, 2.1 x 100 mm (GL Science, Tokyo, Japan).
Retention time: 9.411 min
Precursor m/z: 288.174672
Precursor type: [M+H]+
m/z	relative intensity
41.4	13
42.3	74
44.3	149
55.4	19
58.3	438
65.3	12
67.3	88
68.2	33
70.3	238
79.2	23
80.2	18
81.2	47
82.2	283
84.2	15
91.3	74
94.2	131
95.2	14
96.2	999
97.3	260
108.2	19
110.3	111
115.2	91
117.2	85
128.1	21
129.2	119
141.2	31
152.1	12
153.1	36
154.2	18
165.1	10
167.1	47
178.1	39
179.2	29
182.2	19
191.2	659
196.2	154
197.2	44
202.1	98
203.1	79
204.2	81
205.1	80
215.2	122
216.2	80
217.1	171
228.3	28
229.2	39
230.2	52
231.2	29
241.1	20
245.1	35
288.2	143
