Mass spectrum: 2-(3-(4-fluorobenzoyl)phenyl)propanoic acid; GC-EI-TOF; MS; POSITIVE; 70 V
Name: 2-(3-(4-fluorobenzoyl)phenyl)propanoic acid
Class: Non-natural compound
Formula: C16H13FO3
Exact mass: 272.084873
SMILES: OC(=O)C(C)c1cc(ccc1)C(=O)c1ccc(F)cc1
InChI: InChI=1S/C16H13FO3/c1-10(16(19)20)12-3-2-4-13(9-12)15(18)11-5-7-14(17)8-6-11/h2-10H,1H3,(H,19,20)
Instrument: JMS-T100GCV (JEOL, Akishima, Japan) coupled to Agilent 7890A (Santa Clara, CA, USA) gas chromatograph.
Instrument type: GC-EI-TOF
Ms type: MS
Ion mode: POSITIVE
Ionization: EI
Column name: DB-5MS 122-5532 USA360633H (Agilent, Wilmington, USA) with the length 30.0 m, I.D. 0.25 mm, and thickness 0.25 micrometer.
Retention time: 11.65 min
m/z	relative intensity
22.485	5
27.025	14
28.008	45
31.991	25
35.978	9
39.026	24
43.02	28
45	38
50.017	19
51.025	39
52.034	15
53.041	12
55.02	10
63.025	24
65.041	15
69.017	11
73.049	14
74.018	10
75.025	101
76.032	30
77.041	125
77.098	5
78.048	60
79.056	14
89.041	15
91.056	25
93.072	10
94.024	17
95.031	515
96.035	36
99.033	5
101.04	9
102.048	25
103.057	133
103.111	6
104.064	65
105.037	10
105.07	16
121.067	6
123.026	999
124.029	73
125.034	6
131.052	26
132.059	11
133.054	11
134.04	7
147.028	5
149.059	17
163.043	7
170.054	17
171.063	7
175.054	5
177.056	218
177.223	5
178.06	26
179.089	9
183.062	22
184.067	9
196.067	13
197.077	8
199.056	74
199.145	6
200.058	12
207.033	16
212.064	33
225.075	5
226.078	9
227.087	291
227.245	6
228.092	88
228.198	5
229.096	14
272.085	216
273.087	37
274.07	5
