Mass spectrum: (((((1R,4S)-Bicyclo[2.2.1]heptan-2-yl)methyl)thio)methyl)diphenylsilane; GC-EI-TOF; MS; POSITIVE; 70 V
Name: (((((1R,4S)-Bicyclo[2.2.1]heptan-2-yl)methyl)thio)methyl)diphenylsilane
Class: Non-natural compound
Formula: C21H26SSi
Exact mass: 338.152448
SMILES: c1ccccc1[SiH](CSCC1C[C@@H]2C[C@H]1CC2)c1ccccc1
InChI: InChI=1S/C21H26SSi/c1-3-7-20(8-4-1)23(21-9-5-2-6-10-21)16-22-15-19-14-17-11-12-18(19)13-17/h1-10,17-19,23H,11-16H2/t17-,18+,19?/m0/s1
Instrument: JMS-T100GCV (JEOL, Akishima, Japan) coupled to Agilent 7890A (Santa Clara, CA, USA) gas chromatograph.
Instrument type: GC-EI-TOF
Ms type: MS
Ion mode: POSITIVE
Ionization: EI
Column name: HP-5 19091J-413 USD364547H (Agilent, Wilmington, USA) with the length 30.0 m, I.D. 0.32 mm, and thickness 0.25 micrometer.
Retention time: 12.34 min
m/z	relative intensity
27.024	15
28.006	55
28.031	3
28.985	3
29.039	23
31.99	22
39.024	36
40.031	6
41.04	127
41.092	2
42.044	5
43.001	5
43.055	18
44.981	9
46.996	5
51.024	11
52.031	4
52.985	42
53.04	34
53.988	4
54.048	12
55.001	7
55.056	97
55.114	1
56.06	4
58.997	3
61.012	10
63.024	3
65.04	37
66.048	48
67.001	8
67.056	294
68.06	22
69.071	6
73.012	3
74.973	7
76.986	4
77.04	54
77.994	4
78.047	21
79.001	37
79.056	98
79.131	1
80.004	5
80.063	45
81.017	6
81.071	40
82.075	4
85.013	4
87.028	2
89.041	6
90.048	5
91.056	300
92.06	28
93.017	25
93.071	33
94.018	3
94.078	8
95.087	39
96.091	3
97.012	2
103.002	26
104.007	6
105.017	364
105.071	12
106.019	43
106.079	2
107.023	15
107.087	20
108.027	2
108.095	31
109.103	71
110.106	7
115.056	6
117.018	7
117.073	3
118.024	5
119.033	33
120.038	7
121.047	5
122.11	3
128.065	3
129.017	12
130.022	3
131.033	12
132.034	2
136.989	47
137.995	17
139.004	16
139.057	2
140.003	3
141.011	2
141.073	4
143.034	3
145.048	3
149.997	4
151.005	71
152.012	415
152.565	1
153.016	76
154.01	35
154.079	4
155.032	35
155.091	41
156.035	6
156.094	5
157.047	7
165.02	15
165.072	29
166.024	3
166.077	7
167.032	6
167.087	10
168.041	2
169.049	5
171.065	2
179.033	10
180.041	40
181.049	295
181.315	4
182.052	64
183.064	999
183.548	3
183.734	4
184.067	178
184.684	2
185.064	45
186.066	5
191.036	3
193.049	15
194.055	7
195.064	166
195.194	5
196.071	146
197.079	203
198.081	39
199.08	10
207.034	4
211.096	2
212.104	2
213.021	4
213.11	6
214.027	2
215.036	245
216.038	46
217.034	22
218.036	3
227.037	10
228.041	3
229.052	430
230.057	227
230.35	2
231.056	68
232.058	21
233.061	4
243.067	3
245.083	11
246.085	2
247.096	6
248.101	2
260.106	3
261.114	4
262.119	5
263.123	1
289.141	3
290.149	25
291.153	9
292.154	2
323.129	42
324.132	12
325.127	5
337.143	5
338.152	85
339.155	24
340.152	9
341.153	2
