Mass spectrum: Clothianidin; LC-ESI-QTOF; MS2; [M+H]+; CID; CE 40V
Name: Clothianidin
Class: Non-natural product
Formula: C6H8ClN5O2S
Exact mass: 249.008723
SMILES: CNC(=N[N+](=O)[O-])NCC1=CN=C(S1)Cl
InChI: InChI=1S/C6H8ClN5O2S/c1-8-6(11-12(13)14)10-3-4-2-9-5(7)15-4/h2H,3H2,1H3,(H2,8,10,11)
Instrument: X500R QTOF (AB Sciex LLC, MA, USA) coupled to ExionLC AD (AB Sciex LLC, MA, USA).
Instrument type: LC-ESI-QTOF
Ms type: MS2
Ion mode: POSITIVE
Collision energy: 40 V
Fragmentation mode: CID
Ionization: ESI
Column name: TSKgel ODS-100S 5 um, 2.1 mm Ã— 250 mm, TOSOH
Retention time: 11.2 min
Precursor m/z: 250.016
Precursor type: [M+H]+
m/z	relative intensity
44.9792	37
54.0337	33
57.0446	35
70.9948	115
86.0058	139
96.0555	82
110.071	482
111.0789	345
113.0168	761
119.9666	48
131.9668	999
132.9744	69
146.9775	69
169.054	176
