Mass spectrum: Imidacloprid; LC-ESI-QTOF; MS2; [M+H]+; CID; CE 50V
Name: Imidacloprid
Class: Non-natural product
Formula: C9H10ClN5O2
Exact mass: 255.052302
SMILES: C1CN(C(=N[N+](=O)[O-])N1)CC2=CN=C(C=C2)Cl
InChI: InChI=1S/C9H10ClN5O2/c10-8-2-1-7(5-12-8)6-14-4-3-11-9(14)13-15(16)17/h1-2,5H,3-4,6H2,(H,11,13)
Instrument: X500R QTOF (AB Sciex LLC, MA, USA) coupled to ExionLC AD (AB Sciex LLC, MA, USA).
Instrument type: LC-ESI-QTOF
Ms type: MS2
Ion mode: POSITIVE
Collision energy: 50 V
Fragmentation mode: CID
Ionization: ESI
Column name: TSKgel ODS-100S 5 um, 2.1 mm Ã— 250 mm, TOSOH
Retention time: 11.1 min
Precursor m/z: 256.059579
Precursor type: [M+H]+
m/z	relative intensity
42.0331	12
43.0287	13
44.049	45
56.0493	30
57.0445	13
65.0383	22
69.0446	18
77.0382	21
78.0335	97
80.0493	76
84.0554	149
90.0337	92
91.0411	44
92.037	30
92.0491	65
93.0445	42
93.0568	29
98.9992	71
103.0289	35
104.0373	23
104.049	57
105.0445	257
106.0528	39
106.065	105
107.06	103
108.0675	34
109.0636	38
113.0026	55
114.0106	28
117.0447	41
118.0399	21
118.0523	86
119.0479	52
119.06	134
120.0554	178
121.0627	27
122.0711	27
126.0101	134
127.0181	60
128.0259	56
131.0599	132
132.0558	71
132.0675	62
133.0634	167
133.075	88
134.071	105
135.0785	45
139.0057	58
141.0213	124
145.0506	55
146.0709	285
147.0663	346
148.0747	34
148.0864	121
153.0091	42
157.0635	95
158.071	187
159.0788	377
166.0167	124
167.0369	53
173.0821	637
174.0897	298
175.0977	467
180.0195	154
181.027	114
194.0484	38
208.051	139
209.0588	999
