Mass spectrum: Amezinium; LC-ESI-QQ; MS2; ESI; POSITIVE; CID; CE 30 V; [M]+
Name: Amezinium
Class: Non-natural product
Formula: [C11H12N3O]+
Exact mass: 202.097477
SMILES: COC1=[N+](N=CC(=C1)N)C2=CC=CC=C2
InChI: InChI=1S/C11H11N3O/c1-15-11-7-9(12)8-13-14(11)10-5-3-2-4-6-10/h2-8,12H,1H3/p+1
Instrument: LCMS-8040 coupled to Nexera XR (Shimadzu, Kyoto, Japan).
Instrument type: LC-ESI-QQ
Ms type: MS2
Ion mode: POSITIVE
Collision energy: 30 V
Fragmentation mode: CID
Ionization: ESI
Column name: InertSustain C18 ID 2.1 microm, 2.1 x 100 mm (GL Science, Tokyo, Japan).
Retention time: 5.434 min
Precursor m/z: 202.097477
Precursor type: [M]+
m/z	relative intensity
30.3	13
42.2	19
43.2	30
51.3	17
53.1	46
54.2	176
56.3	17
57.1	15
65.2	55
67.1	13
68.2	26
69.2	15
71.4	10
77.2	999
78.3	22
79.2	185
80.2	10
82.3	37
85.2	23
89.0	13
91.2	373
92.1	20
93.2	391
95.2	152
97.2	23
103.2	13
104.2	218
105.2	64
106.2	256
107.3	86
108.3	47
110.1	18
111.2	11
112.2	46
115.1	13
116.2	95
117.1	30
118.2	82
119.1	105
120.3	20
124.1	13
126.3	37
128.2	27
129.2	18
130.2	109
131.2	85
132.2	145
133.3	20
134.2	18
142.3	20
143.1	29
144.2	27
145.3	20
146.4	15
158.2	19
159.2	78
160.2	16
170.2	163
172.1	12
186.2	477
187.2	23
202.1	247
