Mass spectrum: (E)-1-bromo-2-(1,1,1,2,2,3,3,6,6,7,7,8,8,8-tetradecafluoroocten-4-yl)benzene; GC-EI-TOF; MS; POSITIVE; 70 V
Name: (E)-1-bromo-2-(1,1,1,2,2,3,3,6,6,7,7,8,8,8-tetradecafluoroocten-4-yl)benzene
Class: Non-natural compound
Formula: C14H5BrF14
Exact mass: 519.0711448
SMILES: Brc1ccccc1\C(=C/C(F)(F)C(F)(F)C(F)(F)F)C(F)(F)C(F)(F)C(F)(F)F
InChI: InChI=1S/C14H5BrF14/c15-8-4-2-1-3-6(8)7(10(18,19)12(22,23)14(27,28)29)5-9(16,17)11(20,21)13(24,25)26/h1-5H/b7-5+
Instrument: JMS-T100GCV (JEOL, Akishima, Japan) coupled to Agilent 7890A (Santa Clara, CA, USA) gas chromatograph.
Instrument type: GC-EI-TOF
Ms type: MS
Ion mode: POSITIVE
Ionization: EI
Column name: DB-5MS 122-5532 USA360633H (Agilent, Wilmington, USA) with the length 30.0 m, I.D. 0.25 mm, and thickness 0.25 micrometer.
Retention time: 6.83 min
m/z	relative intensity
28.007	4
30.999	5
39.024	7
50.017	16
51.024	13
57.015	3
62.017	7
63.025	10
68.996	86
69.059	1
74.017	24
75.024	34
75.519	8
76.031	8
77.039	3
81.015	8
86.017	5
87.024	5
88.018	2
91.019	6
93.01	2
95.03	2
98.017	5
99.008	12
100.007	10
101.04	33
102.044	3
105.015	6
106.02	5
107.03	2
111.021	3
112.014	6
113.004	6
118.993	26
120.039	6
123.007	5
124.014	8
125.021	14
126.029	4
130.008	2
131.031	16
132.038	16
133.044	2
137.01	2
138.029	5
143.026	5
144.036	2
145.028	16
149.022	11
150.029	35
151.037	999
151.599	3
152.041	97
152.526	2
153.044	5
153.46	1
154.95	2
155.007	2
156.02	3
161.022	10
162.029	11
163.035	6
169.028	40
170.035	13
174.013	2
175.025	2
179.959	12
180.02	7
181.028	22
181.957	12
182.036	168
183.039	18
187.019	6
188.025	2
193.028	9
194.032	2
199.018	3
199.473	3
200.026	89
200.472	3
201.034	300
201.665	1
201.737	1
202.038	31
204.947	3
205.009	2
206.946	3
207.026	2
210.957	4
211.019	8
212.026	5
212.955	4
213.034	21
214.038	2
218.017	2
219.025	12
220.032	4
228.948	14
229.953	2
230.946	14
231.025	67
231.952	2
232.032	35
233.036	3
242.017	2
243.023	2
249.015	5
250.023	36
250.952	2
251.031	41
252.034	4
259.946	27
260.951	4
261.013	1
261.944	26
262.949	4
263.029	1
269.022	8
270.033	48
271.037	7
278.945	5
279.948	2
280.943	5
281.022	10
281.949	2
282.028	4
290.945	4
292.943	4
299.012	1
300.02	21
301.028	114
302.031	14
309.943	7
310.941	2
311.941	7
319.018	14
320.026	241
321.03	32
322.034	2
328.941	17
329.944	2
330.939	17
331.943	2
348.948	143
349.951	17
350.946	140
351.949	16
359.94	3
361.938	3
378.938	5
380.936	4
398.948	14
400.014	10
400.946	14
401.949	2
409.937	3
411.934	3
419.012	2
420.02	82
421.023	12
439.022	2
440.025	4
478.931	5
480.929	5
498.936	2
500.934	2
517.935	503
518.939	75
519.933	492
520.937	73
521.939	6
522.631	1
