Mass spectrum: Carbamazepine; LC-ESI-QQ; MS2; ESI; POSITIVE; CID; CE 40 V; [M+H]+
Name: Carbamazepine
Class: Non-natural product
Formula: C15H12N2O
Exact mass: 236.094955
SMILES: C1=CC=C2C(=C1)C=CC3=CC=CC=C3N2C(=O)N
InChI: InChI=1S/C15H12N2O/c16-15(18)17-13-7-3-1-5-11(13)9-10-12-6-2-4-8-14(12)17/h1-10H,(H2,16,18)
Instrument: LCMS-8040 coupled to Nexera XR (Shimadzu, Kyoto, Japan).
Instrument type: LC-ESI-QQ
Ms type: MS2
Ion mode: POSITIVE
Collision energy: 40 V
Fragmentation mode: CID
Ionization: ESI
Column name: InertSustain C18 ID 2.1 microm, 2.1 x 100 mm (GL Science, Tokyo, Japan).
Retention time: 8.428 min
Precursor m/z: 237.102232
Precursor type: [M+H]+
m/z	relative intensity
65.2	10
89.2	32
90.2	28
91.2	72
115.1	16
116.1	82
117.2	82
128.2	18
139.1	18
141.1	15
151.1	35
152.1	176
153.1	16
164.1	26
165.1	458
166.1	91
167.1	250
168.2	18
176.0	34
177.0	70
178.1	148
179.1	543
190.1	139
191.1	318
192.1	752
193.2	999
194.1	522
