Mass spectrum: Thioridazine; LC-ESI-QQ; MS2; ESI; POSITIVE; CID; CE 50 V; [M+H]+
Name: Thioridazine
Class: Non-natural product
Formula: C21H26N2S2
Exact mass: 370.153732
SMILES: CN1CCCCC1CCN2C3=CC=CC=C3SC4=C2C=C(C=C4)SC
InChI: InChI=1S/C21H26N2S2/c1-22-13-6-5-7-16(22)12-14-23-18-8-3-4-9-20(18)25-21-11-10-17(24-2)15-19(21)23/h3-4,8-11,15-16H,5-7,12-14H2,1-2H3
Instrument: LCMS-8040 coupled to Nexera XR (Shimadzu, Kyoto, Japan).
Instrument type: LC-ESI-QQ
Ms type: MS2
Ion mode: POSITIVE
Collision energy: 50 V
Fragmentation mode: CID
Ionization: ESI
Column name: InertSustain C18 ID 2.1 microm, 2.1 x 100 mm (GL Science, Tokyo, Japan).
Retention time: 9.627 min
Precursor m/z: 371.161009
Precursor type: [M+H]+
m/z	relative intensity
42.3	23
44.4	63
55.3	116
58.3	313
70.3	275
83.2	35
84.2	46
96.3	18
98.3	999
126.2	184
167.1	18
179.2	32
198.1	13
199.2	16
210.2	12
211.1	41
226.2	39
243.2	15
