Mass spectrum: S-Ethyl 4-(acetylamino)benzothioate; GC-EI-TOF; MS; POSITIVE; 70 V
Name: S-Ethyl 4-(acetylamino)benzothioate
Class: Non-natural compound
Formula: C11H13NO2S
Exact mass: 223.066696
SMILES: CCSC(=O)C1=CC=C(C=C1)NC(=O)C
InChI: InChI=1S/C11H13NO2S/c1-3-15-11(14)9-4-6-10(7-5-9)12-8(2)13/h4-7H,3H2,1-2H3,(H,12,13)
Instrument: JMS-T100GCV (JEOL, Akishima, Japan) coupled to Agilent 7890A (Santa Clara, CA, USA) gas chromatograph.
Instrument type: GC-EI-TOF
Ms type: MS
Ion mode: POSITIVE
Ionization: EI
Column name: ZB-1MS 7HM-G011-11 sn:313446 (Agilent, Wilmington, USA) with the length 30.0 m, I.D. 0.32 mm, and thickness 0.25 micrometer.
Retention time: 10.69 min
m/z	relative intensity
27.023	22
28.006	6
29.039	20
31.99	3
34.995	4
38.016	8
39.023	28
40.027	2
41.027	6
42.011	3
42.034	5
43.018	150
43.055	4
44.022	3
44.98	7
50.015	7
51.023	6
52.019	8
53.039	3
57.07	3
58.995	4
61.01	4
62.016	6
63.023	38
64.031	40
65.039	133
65.101	2
66.038	12
75.023	4
76.031	8
77.039	6
78.037	2
80.05	6
89.018	1
90.034	26
91.042	49
92.05	166
93.053	13
96.003	3
97.011	9
104.049	4
105.057	3
118.029	7
119.037	23
120.044	667
120.259	1
120.526	2
120.586	2
121.037	72
122.038	6
123.015	3
124.022	29
125.027	3
133.052	4
134.06	8
136.022	3
146.024	18
152.053	11
153.054	2
160.04	3
162.055	999
162.686	3
163.058	103
163.593	2
164.06	10
165.061	1
223.067	45
224.07	6
225.064	3
