Mass spectrum: Acetaminophen; LC-ESI-QQ; MS; ESI; NEGATIVE
Name: Acetaminophen
Class: Non-natural product
Formula: C8H9NO2
Exact mass: 151.063325
SMILES: CC(=O)NC1=CC=C(C=C1)O
InChI: InChI=1S/C8H9NO2/c1-6(10)9-7-2-4-8(11)5-3-7/h2-5,11H,1H3,(H,9,10)
Instrument: LCMS-8040 coupled to Nexera XR (Shimadzu, Kyoto, Japan).
Instrument type: LC-ESI-QQ
Ms type: MS
Ion mode: NEGATIVE
Ionization: ESI
Column name: InertSustain C18 ID 2.1 microm, 2.1 x 100 mm (GL Science, Tokyo, Japan).
Retention time: 4.203 min
m/z	relative intensity
107.0	13
112.9	12
150.0	999
151.1	90
165.0	27
186.0	95
188.0	31
190.9	20
196.1	156
197.0	19
296.0	31
301.1	28
401.1	14
