Mass spectrum: Amlodipine; LC-ESI-QQ; MS2; ESI; POSITIVE; CID; CE 30 V; [M+H]+
Name: Amlodipine
Class: Non-natural product
Formula: C20H25ClN2O5
Exact mass: 408.145193
SMILES: CCOC(=O)C1=C(NC(=C(C1C2=CC=CC=C2Cl)C(=O)OC)C)COCCN
InChI: InChI=1S/C20H25ClN2O5/c1-4-28-20(25)18-15(11-27-10-9-22)23-12(2)16(19(24)26-3)17(18)13-7-5-6-8-14(13)21/h5-8,17,23H,4,9-11,22H2,1-3H3
Instrument: LCMS-8040 coupled to Nexera XR (Shimadzu, Kyoto, Japan).
Instrument type: LC-ESI-QQ
Ms type: MS2
Ion mode: POSITIVE
Collision energy: 30 V
Fragmentation mode: CID
Ionization: ESI
Column name: InertSustain C18 ID 2.1 microm, 2.1 x 100 mm (GL Science, Tokyo, Japan).
Retention time: 6.176 min
Precursor m/z: 409.15247
Precursor type: [M+H]+
m/z	relative intensity
44.3	120
67.3	17
84.2	21
109.2	16
112.2	17
116.0	17
125.1	17
126.3	51
127.3	17
134.2	17
137.0	41
139.1	49
140.2	13
142.1	103
143.0	65
148.3	48
149.1	30
156.3	17
159.2	17
163.0	34
165.1	229
167.0	39
170.1	288
172.2	17
176.2	33
177.2	41
178.1	250
180.3	23
184.3	113
185.1	43
191.4	34
192.2	17
193.0	34
195.3	34
197.1	16
202.2	69
206.1	999
208.2	295
212.0	74
213.2	54
218.1	34
220.1	632
221.1	42
224.2	23
228.0	34
232.9	34
236.9	17
238.1	436
239.4	34
240.3	34
248.2	138
252.0	17
253.9	34
260.2	189
261.3	56
268.4	17
270.1	17
276.2	31
286.1	35
288.0	190
294.1	202
303.2	23
303.9	51
306.3	69
314.4	12
316.2	16
318.0	17
334.2	76
360.1	35
377.2	33
