Mass spectrum: S-Ethyl 4-(4'-ethylthiocarbonylphenyl)benzothioate; GC-EI-TOF; MS; POSITIVE; 70 V
Name: S-Ethyl 4-(4'-ethylthiocarbonylphenyl)benzothioate
Class: Non-natural compound
Formula: C18H18O2S2
Exact mass: 330.074822
SMILES: O=C(SCC)c1ccc(cc1)c1ccc(cc1)C(=O)SCC
InChI: InChI=1S/C18H18O2S2/c1-3-21-17(19)15-9-5-13(6-10-15)14-7-11-16(12-8-14)18(20)22-4-2/h5-12H,3-4H2,1-2H3
Instrument: JMS-T100GCV (JEOL, Akishima, Japan) coupled to Agilent 7890A (Santa Clara, CA, USA) gas chromatograph.
Instrument type: GC-EI-TOF
Ms type: MS
Ion mode: POSITIVE
Ionization: EI
Column name: ZB-1MS 7HM-G011-11 sn:313446 (Agilent, Wilmington, USA) with the length 30.0 m, I.D. 0.32 mm, and thickness 0.25 micrometer.
Retention time: 12.94 min
m/z	relative intensity
27.024	17
28.007	7
28.031	2
29.039	15
31.99	4
34.996	6
39.024	3
41.039	8
43.055	8
44.98	3
50.016	4
51.023	4
55.018	5
55.055	10
56.062	3
57.071	7
58.996	3
61.011	6
63.023	10
67.055	6
69.07	7
71.086	3
73.047	5
74.016	4
75.024	10
76.031	58
76.533	7
77.038	5
78.046	2
81.07	5
83.086	4
87.023	3
90.029	36
90.53	6
95.086	4
97.102	3
98.073	2
99.023	3
100.03	2
101.039	4
102.047	10
104.026	90
104.112	1
104.528	14
113.038	3
125.038	6
126.047	31
127.05	4
133.013	2
139.055	8
140.06	2
149.039	2
150.046	42
151.054	114
151.188	4
152.062	186
153.065	24
154.069	2
179.048	5
180.057	338
181.06	49
182.063	4
183.027	3
184.034	7
191	2
207.032	20
208.048	10
209.042	2
212.029	14
213.033	3
241.032	18
242.035	3
269.062	999
269.648	2
269.822	3
270.066	182
270.898	1
271.062	61
272.063	9
273.054	2
281.051	7
282.051	2
330.075	25
331.078	5
332.075	3
