Mass spectrum: S-Ethyl 2-phenylbenzothioate; GC-EI-TOF; MS; POSITIVE; 70 V
Name: S-Ethyl 2-phenylbenzothioate
Class: Non-natural compound
Formula: C15H14OS
Exact mass: 242.076536
SMILES: O=C(SCC)c1ccccc1c1ccccc1
InChI: InChI=1S/C15H14OS/c1-2-17-15(16)14-11-7-6-10-13(14)12-8-4-3-5-9-12/h3-11H,2H2,1H3
Instrument: JMS-T100GCV (JEOL, Akishima, Japan) coupled to Agilent 7890A (Santa Clara, CA, USA) gas chromatograph.
Instrument type: GC-EI-TOF
Ms type: MS
Ion mode: POSITIVE
Ionization: EI
Column name: ZB-1MS 7HM-G011-11 sn:313446 (Agilent, Wilmington, USA) with the length 30.0 m, I.D. 0.32 mm, and thickness 0.25 micrometer.
Retention time: 9.96 min
m/z	relative intensity
27.024	18
28.007	11
28.03	2
29.039	10
31.99	6
34.996	9
39.024	7
44.98	4
45.988	3
50.016	6
51.024	16
52.03	3
57.988	2
58.996	3
61.011	4
62.016	3
63.024	11
64.031	2
74.016	8
75.023	15
75.528	2
76.031	20
76.534	3
77.039	22
78.045	3
86.015	3
87.023	5
88.031	2
89.038	3
90.533	2
98.016	3
99.023	3
100.032	2
101.039	9
102.046	9
103.053	2
113.039	4
115.055	4
125.04	5
126.047	32
127.054	33
128.059	4
139.055	6
149.039	2
150.047	30
151.055	110
151.188	3
152.062	408
152.193	8
152.503	1
152.617	2
153.069	237
153.587	1
154.073	29
155.078	2
165.07	2
180.057	7
181.065	999
181.547	2
181.731	3
182.068	148
182.672	2
183.071	13
183.647	1
183.719	1
184.035	15
184.18	1
185.041	8
186.041	1
213.038	5
242.077	19
243.08	3
244.076	1
