Mass spectrum: Haloxazolam; LC-ESI-QQ; MS2; ESI; POSITIVE; CID; CE 40 V; [M+H]+
Name: Haloxazolam
Class: Non-natural product
Formula: C17H14BrFN2O2
Exact mass: 376.022261
SMILES: C1COC2(N1CC(=O)NC3=C2C=C(C=C3)Br)C4=CC=CC=C4F
InChI: InChI=1S/C17H14BrFN2O2/c18-11-5-6-15-13(9-11)17(12-3-1-2-4-14(12)19)21(7-8-23-17)10-16(22)20-15/h1-6,9H,7-8,10H2,(H,20,22)
Instrument: LCMS-8040 coupled to Nexera XR (Shimadzu, Kyoto, Japan).
Instrument type: LC-ESI-QQ
Ms type: MS2
Ion mode: POSITIVE
Collision energy: 40 V
Fragmentation mode: CID
Ionization: ESI
Column name: InertSustain C18 ID 2.1 microm, 2.1 x 100 mm (GL Science, Tokyo, Japan).
Retention time: 9.644 min
Precursor m/z: 377.029538
Precursor type: [M+H]+
m/z	relative intensity
44.5	33
45.3	33
56.1	49
104.2	128
105.3	245
109.2	324
117.3	16
121.9	32
123.3	47
124.1	125
130.2	230
133.1	111
134.3	94
135.4	64
157.9	131
162.2	98
167.1	16
169.9	63
179.2	105
184.0	999
189.9	16
194.1	26
197.3	122
198.1	16
205.0	49
206.1	200
208.0	16
209.1	286
210.1	417
211.1	90
216.3	16
225.2	162
226.2	786
235.1	64
236.0	75
236.8	24
258.3	226
261.1	78
271.9	66
278.2	66
289.1	33
303.2	242
304.1	75
305.3	66
312.2	66
313.1	33
317.4	66
333.1	658
377.5	44
