Mass spectrum: (((Cyclohexylmethyl)thio)methyl)diphenylsilane; GC-EI-TOF; MS; POSITIVE; 70 V
Name: (((Cyclohexylmethyl)thio)methyl)diphenylsilane
Class: Non-natural compound
Formula: C20H26SSi
Exact mass: 326.152448
SMILES: c1cccc(c1)[SiH](CSCC1CCCCC1)c1ccccc1
InChI: InChI=1S/C20H26SSi/c1-4-10-18(11-5-1)16-21-17-22(19-12-6-2-7-13-19)20-14-8-3-9-15-20/h2-3,6-9,12-15,18,22H,1,4-5,10-11,16-17H2
Instrument: JMS-T100GCV (JEOL, Akishima, Japan) coupled to Agilent 7890A (Santa Clara, CA, USA) gas chromatograph.
Instrument type: GC-EI-TOF
Ms type: MS
Ion mode: POSITIVE
Ionization: EI
Column name: HP-5 19091J-413 USD364547H (Agilent, Wilmington, USA) with the length 30.0 m, I.D. 0.32 mm, and thickness 0.25 micrometer.
Retention time: 12.06 min
m/z	relative intensity
27.024	18
28.006	22
28.031	4
29.039	38
31.99	8
39.024	32
40.031	4
41.04	140
41.088	2
42.045	7
43.001	6
43.055	29
44.981	7
46.996	5
51.024	10
52.032	3
52.985	46
53.04	24
53.989	4
54.047	20
55.001	7
55.055	311
56.059	15
61.012	27
63.025	3
65.04	19
65.994	3
66.047	4
67.001	9
67.056	49
68.063	15
69.071	15
74.973	11
76.986	4
77.04	35
77.993	3
78.047	13
79.001	40
79.056	17
80.005	5
80.062	3
81.017	6
81.071	37
82.077	5
83.088	11
89.04	5
90.048	5
91.056	289
92.06	26
93.017	29
93.071	9
94.019	3
94.078	4
95.028	2
95.087	62
96.094	22
97.102	20
103.001	27
104.007	7
105.017	380
106.019	47
107.023	15
108.03	2
115.056	5
117.017	8
118.024	6
119.033	35
120.038	9
121.047	6
128.065	4
129.017	12
129.072	2
130.022	3
131.033	13
136.989	60
137.994	16
139.003	18
140.004	2
141.007	2
143.033	3
143.091	16
144.094	2
149.997	3
151.005	62
152.012	624
152.623	2
153.016	111
154.01	55
154.079	5
155.032	37
156.035	6
157.048	7
165.021	13
165.072	29
166.024	3
166.077	8
167.032	6
167.087	11
168.038	2
169.049	5
172.126	2
179.033	8
180.041	42
181.049	297
181.318	4
182.052	67
183.064	999
183.733	3
184.067	181
184.692	2
185.064	45
185.724	1
186.066	5
193.049	15
194.054	7
195.064	150
195.194	4
196.071	121
197.079	171
198.081	32
199.079	8
200.101	6
201.108	2
213.021	3
215.036	276
216.038	51
216.15	1
217.034	24
218.036	4
227.037	7
229.052	335
230.058	300
231.061	105
231.28	1
232.059	31
233.068	9
234.072	1
235.098	6
249.114	4
278.149	11
279.153	4
311.13	37
312.133	10
313.128	4
325.145	4
326.152	73
327.155	21
328.152	8
