Mass spectrum: Zonisamide; LC-ESI-QQ; MS2; ESI; NEGATIVE; CID; CE 40 V; [M-H]-
Name: Zonisamide
Class: Non-natural product
Formula: C8H8N2O3S
Exact mass: 212.025556
SMILES: C1=CC=C2C(=C1)C(=NO2)CS(=O)(=O)N
InChI: InChI=1S/C8H8N2O3S/c9-14(11,12)5-7-6-3-1-2-4-8(6)13-10-7/h1-4H,5H2,(H2,9,11,12)
Instrument: LCMS-8040 coupled to Nexera XR (Shimadzu, Kyoto, Japan).
Instrument type: LC-ESI-QQ
Ms type: MS2
Ion mode: NEGATIVE
Collision energy: 40 V
Fragmentation mode: CID
Ionization: ESI
Column name: InertSustain C18 ID 2.1 microm, 2.1 x 100 mm (GL Science, Tokyo, Japan).
Retention time: 5.965 min
Precursor m/z: 211.01827
Precursor type: [M-H]-
m/z	relative intensity
26.3	30
40.9	83
42.1	85
42.9	20
48.1	28
50.1	48
62.1	324
64.1	759
65.0	274
75.2	11
78.1	292
79.1	982
80.1	11
89.2	86
90.1	355
91.1	169
91.9	55
93.1	566
106.4	36
107.2	49
117.0	485
118.1	999
118.9	536
129.8	21
131.3	84
132.1	63
146.7	20
147.4	21
210.3	28
211.1	44
