Mass spectrum: Clotiazepam; LC-ESI-QQ; MS2; ESI; POSITIVE; CE 10 V; [M+H]+
Name: Clotiazepam
Class: Non-natural product
Formula: C16H15ClN2OS
Exact mass: 318.05935
SMILES: CCC1=CC2=C(S1)N(C(=O)CN=C2C3=CC=CC=C3Cl)C
InChI: InChI=1S/C16H15ClN2OS/c1-3-10-8-12-15(11-6-4-5-7-13(11)17)18-9-14(20)19(2)16(12)21-10/h4-8H,3,9H2,1-2H3
Instrument: LCMS-8040 coupled to Nexera XR (Shimadzu, Kyoto, Japan).
Instrument type: LC-ESI-QQ
Ms type: MS2
Ion mode: POSITIVE
Collision energy: 10 V
Ionization: ESI
Column name: InertSustain C18 ID 2.1 microm, 2.1 x 100 mm (GL Science, Tokyo, Japan).
Retention time: 9.928 min
Precursor m/z: 319.06663
Precursor type: [M+H]+
m/z	relative intensity
291	19
319	999
