Mass spectrum: Etizolam; LC-ESI-QQ; MS2; ESI; POSITIVE; CE 50 V; [M+H]+
Name: Etizolam
Class: Non-natural product
Formula: C17H15ClN4S
Exact mass: 342.07058
SMILES: CCC1=CC2=C(S1)N3C(=NN=C3CN=C2C4=CC=CC=C4Cl)C
InChI: InChI=1S/C17H15ClN4S/c1-3-11-8-13-16(12-6-4-5-7-14(12)18)19-9-15-21-20-10(2)22(15)17(13)23-11/h4-8H,3,9H2,1-2H3
Instrument: LCMS-8040 coupled to Nexera XR (Shimadzu, Kyoro, Japan).
Instrument type: LC-ESI-QQ
Ms type: MS2
Ion mode: POSITIVE
Collision energy: 50 V
Ionization: ESI
Column name: InertSustain C18 ID 2.1 microm, 2.1 x 100 mm (GL Science, Tokyo, Japan).
Retention time: 9.049 min
Precursor m/z: 343.07786
Precursor type: [M+H]+
m/z	relative intensity
23	38
27	51
29	54
39	38
42	167
45	75
53	38
55	23
57	87
58	44
59	38
65	166
66	76
67	83
69	67
70	37
71	59
73	68
77	442
78	105
79	145
80	38
81	56
82	19
84	56
85	132
86	38
89	38
90	75
91	345
92	19
94	94
96	202
97	134
98	74
99	56
102	196
103	38
104	37
105	54
106	38
107	38
108	36
109	242
110	175
111	51
115	38
117	30
118	19
119	19
121	322
122	55
123	350
125	68
126	75
127	34
129	125
130	19
131	111
134	90
135	308
136	76
137	91
138	999
139	19
143	23
145	19
147	81
148	36
149	189
150	186
152	52
153	19
154	56
155	36
156	38
158	19
161	38
162	126
163	31
164	21
165	283
166	108
167	182
170	19
171	353
172	38
175	38
176	144
177	147
178	120
179	185
180	285
181	75
183	227
184	90
185	75
189	46
190	302
192	194
193	72
195	108
196	375
197	272
198	168
199	96
202	124
204	19
205	66
206	139
208	38
209	319
210	592
211	399
212	82
213	153
214	193
215	195
217	67
218	302
219	164
220	151
223	932
224	957
225	161
226	119
227	91
229	100
230	34
231	37
232	73
233	67
234	37
235	91
236	54
237	95
238	132
239	140
240	97
242	75
243	75
244	36
245	197
246	93
247	75
248	56
249	220
250	92
251	54
252	149
253	38
257	72
258	438
259	349
260	192
262	38
263	15
264	38
265	19
267	38
268	38
269	75
271	38
272	101
273	113
274	75
275	38
277	46
279	115
284	75
285	105
286	31
290	65
295	106
305	36
311	56
314	308
343	38
