Mass spectrum: Thiodicarb; LC-ESI-QTOF; MS; POSITIVE
Name: Thiodicarb
Class: Non-natural product
Formula: C10H18N4O4S3
Exact mass: 354.049019
SMILES: C/C(=N\OC(=O)N(SN(C(=O)O/N=C(/SC)\C)C)C)/SC
InChI: InChI=1S/C10H18N4O4S3/c1-7(19-5)11-17-9(15)13(3)21-14(4)10(16)18-12-8(2)20-6/h1-6H3/b11-7+,12-8+
Instrument: X500R QTOF (AB Sciex LLC, MA, USA) coupled to ExionLC AD (AB Sciex LLC, MA, USA).
Instrument type: LC-ESI-QTOF
Ms type: MS
Ion mode: POSITIVE
Ionization: ESI
Column name: TSKgel ODS-100S 5 um, 2.1 mm Ã— 250 mm, TOSOH
Retention time: 13.2 min
m/z	relative intensity
88.0212	88
107.9933	14
149.0203	78
163.0534	218
193.0099	145
209.0049	92
355.0562	999
356.0588	155
357.053	156
