Mass spectrum: (3aR,4S,6R,6aS)-3a,4-dihydroxy-3,3,6-trimethylhexahydro-1H-cyclopenta[c]furan-1-one; GC-EI-TOF; MS; POSITIVE; 70 V
Name: (3aR,4S,6R,6aS)-3a,4-dihydroxy-3,3,6-trimethylhexahydro-1H-cyclopenta[c]furan-1-one
Class: Non-natural compound
Formula: C10H16O4
Exact mass: 200.104859
SMILES: CC1(C)OC(=O)[C@H]2[C@H](C)C[C@H](O)[C@]21O
InChI: InChI=1S/C10H16O4/c1-5-4-6(11)10(13)7(5)8(12)14-9(10,2)3/h5-7,11,13H,4H2,1-3H3/t5-,6+,7-,10+/m1/s1
Instrument: JMS-T100GCV (JEOL, Akishima, Japan) coupled to Agilent 7890A (Santa Clara, CA, USA) gas chromatograph.
Instrument type: GC-EI-TOF
Ms type: MS
Ion mode: POSITIVE
Ionization: EI
Column name: HP-5 19091J-413 USD364547H (Agilent, Wilmington, USA) with the length 30.0 m, I.D. 0.32 mm, and thickness 0.25 micrometer.
Retention time: 8.93 min
m/z	relative intensity
26.015	10
27.023	122
28.006	26
28.03	13
29.003	52
29.039	81
31.018	55
31.989	15
39.024	195
40.031	35
41.039	359
41.09	5
42.011	27
42.046	65
43.018	486
43.055	56
44.026	84
45.034	25
51.023	24
52.031	14
53.003	12
53.039	124
54.01	9
54.046	22
55.018	62
55.055	72
56.025	9
56.061	11
57.034	68
57.07	42
58.005	17
58.041	19
59.049	129
65.039	30
66.047	14
67.055	100
68.026	16
68.062	90
68.998	21
69.034	189
69.069	20
70.041	179
71.013	16
71.049	136
72.021	29
72.055	14
73.028	10
77.039	33
78.046	8
79.055	28
81.034	458
81.07	20
82.038	29
83.05	65
83.086	6
84.056	16
85.065	11
86.073	9
87.008	52
87.044	19
91.055	15
93.071	9
95.05	87
95.086	12
96.057	312
97.029	28
97.064	73
99.044	534
100.017	10
100.048	30
101.059	13
111.044	41
111.081	8
112.052	55
112.089	9
113.06	28
114.068	999
115.071	65
116.074	6
123.081	8
129.055	21
130.063	138
131.067	9
137.061	11
138.068	13
139.076	13
141.055	17
155.056	13
156.076	6
167.071	11
170.077	12
172.11	50
185.082	13
