Mass spectrum: Talipexole; LC-ESI-QQ; MS2; ESI; POSITIVE; CID; CE 20 V; [M+H]+
Name: Talipexole
Class: Non-natural product
Formula: C10H15N3S
Exact mass: 209.098656
SMILES: C=CCN1CCC2=C(CC1)SC(=N2)N
InChI: InChI=1S/C10H15N3S/c1-2-5-13-6-3-8-9(4-7-13)14-10(11)12-8/h2H,1,3-7H2,(H2,11,12)
Instrument: LCMS-8040 coupled to Nexera XR (Shimadzu, Kyoto, Japan).
Instrument type: LC-ESI-QQ
Ms type: MS2
Ion mode: POSITIVE
Collision energy: 20 V
Fragmentation mode: CID
Ionization: ESI
Column name: InertSustain C18 ID 2.1 microm, 2.1 x 100 mm (GL Science, Tokyo, Japan).
Retention time: 4.719 min
Precursor m/z: 210.105933
Precursor type: [M+H]+
m/z	relative intensity
41.3	34
42.3	34
70.3	39
82.2	25
84.3	999
93.3	12
94.2	33
96.2	34
100.1	15
109.3	27
111.1	36
113.1	28
126.2	49
127.2	273
134.2	35
139.1	156
141.1	122
142.2	279
151.1	20
153.2	159
155.1	19
168.1	108
169.1	50
193.2	11
210.2	430
