Mass spectrum: Cloxazolam; LC-ESI-QQ; MS2; ESI; POSITIVE; CE 40 V; [M+H]+
Name: Cloxazolam
Class: Non-natural product
Formula: C17H14Cl2N2O2
Exact mass: 348.04323
SMILES: C1COC2(N1CC(=O)NC3=C2C=C(C=C3)Cl)C4=CC=CC=C4Cl
InChI: InChI=1S/C17H14Cl2N2O2/c18-11-5-6-15-13(9-11)17(12-3-1-2-4-14(12)19)21(7-8-23-17)10-16(22)20-15/h1-6,9H,7-8,10H2,(H,20,22)
Instrument: LCMS-8040 coupled to Nexera XR (Shimadzu, Kyoto, Japan).
Instrument type: LC-ESI-QQ
Ms type: MS2
Ion mode: POSITIVE
Collision energy: 40 V
Ionization: ESI
Column name: InertSustain C18 ID 2.1 microm, 2.1 x 100 mm (GL Science, Tokyo, Japan).
Retention time: 9.919 min
Precursor m/z: 349.05050
Precursor type: [M+H]+
m/z	relative intensity
28.5	14
29.4	13
43.5	14
44.5	26
45.5	59
101	27
105	63
110	14
111	54
112	14
113	39
117	37
123	29
125	140
127	14
129	27
130	25
133	69
138	91
140	999
141	12
142	14
150	155
158	58
163	26
165	268
166	68
178	79
179	27
190	64
192	30
193	43
205	37
206	218
207	66
213	46
214	59
217	14
224	20
225	21
227	168
228	245
238	14
241	234
242	187
248	21
250	26
251	14
252	43
255	27
260	27
269	14
270	14
275	52
276	49
305	243
349	27
