Mass spectrum: Alprazolam; LC-ESI-QQ; MS2; ESI; POSITIVE; CE 20 V; [M+H]+
Name: Alprazolam
Class: Non-natural product
Formula: C17H13ClN4
Exact mass: 308.08286
SMILES: CC1=NN=C2N1C3=C(C=C(C=C3)Cl)C(=NC2)C4=CC=CC=C4
InChI: InChI=1S/C17H13ClN4/c1-11-20-21-16-10-19-17(12-5-3-2-4-6-12)14-9-13(18)7-8-15(14)22(11)16/h2-9H,10H2,1H3
Instrument: LCMS-8040 coupled to Nexera XR (Shimadzu, Kyoro, Japan).
Instrument type: LC-ESI-QQ
Ms type: MS2
Ion mode: POSITIVE
Collision energy: 20 V
Ionization: ESI
Column name: InertSustain C18 ID 2.1 microm, 2.1 x 100 mm (GL Science, Tokyo, Japan).
Retention time: 8.958 min
Precursor m/z: 309.09014
Precursor type: [M+H]+
m/z	relative intensity
165	17
206	11
241	23
274	54
281	123
309	999
