Mass spectrum: Clocapramine; LC-ESI-QQ; MS; ESI; NEGATIVE
Name: Clocapramine
Class: Non-natural product
Formula: C28H37ClN4O
Exact mass: 480.265573
SMILES: C1CCN(CC1)C2(CCN(CC2)CCCN3C4=CC=CC=C4CCC5=C3C=C(C=C5)Cl)C(=O)N
InChI: InChI=1S/C28H37ClN4O/c29-24-12-11-23-10-9-22-7-2-3-8-25(22)33(26(23)21-24)18-6-15-31-19-13-28(14-20-31,27(30)34)32-16-4-1-5-17-32/h2-3,7-8,11-12,21H,1,4-6,9-10,13-20H2,(H2,30,34)
Instrument: LCMS-8040 coupled to Nexera XR (Shimadzu, Kyoto, Japan).
Instrument type: LC-ESI-QQ
Ms type: MS
Ion mode: NEGATIVE
Ionization: ESI
Column name: InertSustain C18 ID 2.1 microm, 2.1 x 100 mm (GL Science, Tokyo, Japan).
Retention time: 10.380 min
m/z	relative intensity
101.0	16
112.9	43
115.0	12
129.0	20
130.0	10
143.0	38
157.0	70
173.0	13
187.0	16
188.9	12
193.1	12
201.0	114
226.1	54
241.2	10
242.1	19
255.2	16
269.2	16
271.2	16
272.2	15
297.2	18
313.3	14
383.3	12
394.2	34
479.3	999
480.3	312
481.3	366
482.3	98
483.3	16
495.3	259
496.3	83
497.3	91
498.3	29
