Mass spectrum: Estazolam; LC-ESI-QQ; MS; ESI; POSITIVE
Name: Estazolam
Class: Non-natural product
Formula: C16H11ClN4
Exact mass: 294.06721
SMILES: C1C2=NN=CN2C3=C(C=C(C=C3)Cl)C(=N1)C4=CC=CC=C4
InChI: InChI=1S/C16H11ClN4/c17-12-6-7-14-13(8-12)16(11-4-2-1-3-5-11)18-9-15-20-19-10-21(14)15/h1-8,10H,9H2
Instrument: LCMS-8040 coupled to Nexera XR (Shimadzu, Kyoro, Japan).
Instrument type: LC-ESI-QQ
Ms type: MS
Ion mode: POSITIVE
Ionization: ESI
Column name: InertSustain C18 ID 2.1 microm, 2.1 x 100 mm (GL Science, Tokyo, Japan).
Retention time: 8.765 min
Base peak: 295.07449
Ion type: [M+H]+
m/z	relative intensity
295	999
296	170
297	339
298	62
317	21
333	28
335	13
