Mass spectrum: Oxypertine; LC-ESI-QQ; MS; ESI; NEGATIVE
Name: Oxypertine
Class: Non-natural product
Formula: C23H29N3O2
Exact mass: 379.225965
SMILES: CC1=C(C2=CC(=C(C=C2N1)OC)OC)CCN3CCN(CC3)C4=CC=CC=C4
InChI: InChI=1S/C23H29N3O2/c1-17-19(20-15-22(27-2)23(28-3)16-21(20)24-17)9-10-25-11-13-26(14-12-25)18-7-5-4-6-8-18/h4-8,15-16,24H,9-14H2,1-3H3
Instrument: LCMS-8040 coupled to Nexera XR (Shimadzu, Kyoto, Japan).
Instrument type: LC-ESI-QQ
Ms type: MS
Ion mode: NEGATIVE
Ionization: ESI
Column name: InertSustain C18 ID 2.1 microm, 2.1 x 100 mm (GL Science, Tokyo, Japan).
Retention time: 9.174 min
m/z	relative intensity
348.2	10
363.2	15
378.3	999
379.3	260
380.3	35
414.3	16
424.3	189
425.3	46
