Mass spectrum: Pirimicarb; LC-ESI-QTOF; MS2; [M+H]+; CID; CE 20V
Name: Pirimicarb
Class: Non-natural product
Formula: C11H18N4O2
Exact mass: 238.142976
SMILES: CC1=C(N=C(N=C1OC(=O)N(C)C)N(C)C)C
InChI: InChI=1S/C11H18N4O2/c1-7-8(2)12-10(14(3)4)13-9(7)17-11(16)15(5)6/h1-6H3
Instrument: X500R QTOF (AB Sciex LLC, MA, USA) coupled to ExionLC AD (AB Sciex LLC, MA, USA).
Instrument type: LC-ESI-QTOF
Ms type: MS2
Ion mode: POSITIVE
Collision energy: 20 V
Fragmentation mode: CID
Ionization: ESI
Column name: TSKgel ODS-100S 5 um, 2.1 mm Ã— 250 mm, TOSOH
Retention time: 12.2 min
Precursor m/z: 239.150253
Precursor type: [M+H]+
m/z	relative intensity
72.0441	333
85.0758	31
137.0709	43
182.1284	999
195.1604	136
239.1498	846
