Mass spectrum: N1-(2-Ethylphenyl)benzene-1,2-diamine; GC-EI-TOF; MS; POSITIVE; 70 V
Name: N1-(2-Ethylphenyl)benzene-1,2-diamine
Class: Non-natural compound
Formula: C14H16N2
Exact mass: 212.131349
SMILES: CCc1ccccc1Nc1ccccc1N
InChI: InChI=1S/C14H16N2/c1-2-11-7-3-5-9-13(11)16-14-10-6-4-8-12(14)15/h3-10,16H,2,15H2,1H3
Instrument: JMS-T100GCV (JEOL, Akishima, Japan) coupled to Agilent 7890A (Santa Clara, CA, USA) gas chromatograph.
Instrument type: GC-EI-TOF
Ms type: MS
Ion mode: POSITIVE
Ionization: EI
Column name: DB-5MS 122-5532 USA360633H (Agilent, Wilmington, USA) with the length 30.0 m, I.D. 0.25 mm, and thickness 0.25 micrometer.
Retention time: 10.89 min
m/z	relative intensity
27.023	35
28.018	29
29.039	24
30.034	7
38.015	6
39.023	86
39.072	1
40.03	8
41.038	16
42.034	11
50.015	15
51.023	71
52.029	37
53.038	61
54.034	21
55.041	2
62.015	5
63.023	40
64.03	21
65.038	139
66.043	29
67.044	6
70.528	3
71.536	4
74.015	3
75.023	11
76.03	20
76.529	2
77.038	161
77.535	3
78.042	47
79.052	36
80.049	144
81.055	15
83.536	20
84.037	5
84.539	5
85.041	2
88.029	2
89.037	40
89.536	15
90.041	40
90.541	5
91.051	92
91.544	4
92.05	44
93.057	129
94.063	16
95.536	2
96.543	16
97.042	11
97.546	49
98.049	90
98.552	21
99.054	2
101.038	7
102.045	16
103.053	38
104.052	21
105.069	43
106.065	57
107.06	70
108.067	30
109.073	3
113.038	3
114.044	3
115.054	19
116.051	11
117.057	39
118.064	68
118.2	1
119.07	52
120.08	187
121.084	19
126.046	4
127.053	18
128.054	22
129.059	12
130.065	28
131.066	11
132.07	13
133.075	2
139.054	12
140.051	12
141.062	6
142.064	5
143.07	11
144.079	7
145.082	5
150.046	2
151.053	15
152.06	38
153.063	15
154.065	33
155.067	13
156.073	14
157.077	6
158.084	7
164.053	4
165.067	9
166.065	44
167.072	65
168.078	39
169.077	32
170.087	6
171.092	5
177.059	8
178.065	30
179.072	72
180.08	759
180.694	3
181.081	216
181.696	2
182.084	215
182.694	2
183.09	183
183.712	2
184.095	28
185.103	3
190.065	2
191.073	7
192.078	11
193.086	28
194.096	149
195.093	140
196.102	40
197.107	275
197.769	1
198.11	39
199.113	3
199.275	1
199.351	1
206.084	2
207.092	3
208.1	2
209.107	7
210.115	4
211.123	23
212.131	999
212.652	2
212.803	3
213.135	157
213.867	2
214.138	11
214.411	2
214.965	1
