Mass spectrum: Carvedilol; LC-ESI-QQ; MS2; ESI; POSITIVE; CID; CE 50 V; [M+H]+
Name: Carvedilol
Class: Non-natural product
Formula: C24H26N2O4
Exact mass: 406.18925
SMILES: COC1=CC=CC=C1OCCNCC(COC2=CC=CC3=C2C4=CC=CC=C4N3)O
InChI: InChI=1S/C24H26N2O4/c1-28-21-10-4-5-11-22(21)29-14-13-25-15-17(27)16-30-23-12-6-9-20-24(23)18-7-2-3-8-19(18)26-20/h2-12,17,25-27H,13-16H2,1H3
Instrument: LCMS-8040 coupled to Nexera XR (Shimadzu, Kyoto, Japan).
Instrument type: LC-ESI-QQ
Ms type: MS2
Ion mode: POSITIVE
Collision energy: 50 V
Fragmentation mode: CID
Ionization: ESI
Column name: InertSustain C18 ID 2.1 microm, 2.1 x 100 mm (GL Science, Tokyo, Japan).
Retention time: 8.274 min
Precursor m/z: 407.196527
Precursor type: [M+H]+
m/z	relative intensity
28.4	24
29.4	11
30.4	17
39.3	32
41.3	37
42.4	78
44.4	94
55.3	60
56.3	999
57.2	47
58.4	82
65.1	16
67.2	25
68.3	45
70.3	34
71.2	11
73.4	16
74.2	30
77.3	108
80.3	53
82.3	66
84.3	96
86.2	58
91.2	68
93.2	83
95.2	109
100.2	633
121.2	28
122.2	39
123.2	34
128.3	33
129.3	34
130.2	32
137.4	10
139.2	16
141.2	18
150.9	27
155.1	50
156.2	93
165.0	18
166.2	93
167.1	168
168.1	136
179.1	36
180.1	37
182.2	50
183.2	62
184.5	18
190.9	17
192.2	20
193.2	93
194.2	323
196.1	38
204.1	23
207.1	13
210.2	10
222.2	43
