Mass spectrum: Clofedanol; LC-ESI-QQ; MS2; ESI; POSITIVE; CID; CE 50 V; [M+H]+
Name: Clofedanol
Class: Non-natural product
Formula: C17H20ClNO
Exact mass: 289.123338
SMILES: CN(C)CCC(C1=CC=CC=C1)(C2=CC=CC=C2Cl)O
InChI: InChI=1S/C17H20ClNO/c1-19(2)13-12-17(20,14-8-4-3-5-9-14)15-10-6-7-11-16(15)18/h3-11,20H,12-13H2,1-2H3
Instrument: LCMS-8040 coupled to Nexera XR (Shimadzu, Kyoto, Japan).
Instrument type: LC-ESI-QQ
Ms type: MS2
Ion mode: POSITIVE
Collision energy: 50 V
Fragmentation mode: CID
Ionization: ESI
Column name: InertSustain C18 ID 2.1 microm, 2.1 x 100 mm (GL Science, Tokyo, Japan).
Retention time: 7.934 min
Precursor m/z: 290.130615
Precursor type: [M+H]+
m/z	relative intensity
30.4	22
42.3	33
43.3	23
56.2	15
58.3	999
