Mass spectrum: Diclomezine; LC-ESI-QTOF; MS; NEGATIVE
Name: Diclomezine
Class: Non-natural product
Formula: C11H8Cl2N2O
Exact mass: 254.001368
SMILES: CC1=C(C=C(C=C1Cl)C2=NNC(=O)C=C2)Cl
InChI: InChI=1S/C11H8Cl2N2O/c1-6-8(12)4-7(5-9(6)13)10-2-3-11(16)15-14-10/h2-5H,1H3,(H,15,16)
Instrument: X500R QTOF (AB Sciex LLC, MA, USA) coupled to ExionLC AD (AB Sciex LLC, MA, USA).
Instrument type: LC-ESI-QTOF
Ms type: MS
Ion mode: NEGATIVE
Ionization: ESI
Column name: AQ-C18HP 3 microm, 2.1 mm Ã— 150 mm (GL Science, Tokyo, Japan).
Retention time: 31.8 min
m/z	relative intensity
252.9942	999
253.9976	104
254.9912	653
