Mass spectrum: Flunitrazepam; LC-ESI-QQ; MS2; ESI; POSITIVE; CID; CE 50 V; [M+H]+
Name: Flunitrazepam
Class: Non-natural product
Formula: C16H12FN3O3
Exact mass: 313.086258
SMILES: CN1C(=O)CN=C(C2=C1C=CC(=C2)[N+](=O)[O-])C3=CC=CC=C3F
InChI: InChI=1S/C16H12FN3O3/c1-19-14-7-6-10(20(22)23)8-12(14)16(18-9-15(19)21)11-4-2-3-5-13(11)17/h2-8H,9H2,1H3
Instrument: LCMS-8040 coupled to Nexera XR (Shimadzu, Kyoto, Japan).
Instrument type: LC-ESI-QQ
Ms type: MS2
Ion mode: POSITIVE
Collision energy: 50 V
Fragmentation mode: CID
Ionization: ESI
Column name: InertSustain C18 ID 2.1 microm, 2.1 x 100 mm (GL Science, Tokyo, Japan).
Retention time: 8.703 min
Precursor m/z: 314.093535
Precursor type: [M+H]+
m/z	relative intensity
30.3	11
55.2	11
58.2	36
65.3	23
66.1	14
76.3	13
77.3	34
78.3	76
80.3	23
88.3	12
89.3	209
90.2	230
91.3	117
92.3	27
93.1	15
95.3	25
102.0	16
103.2	11
104.2	87
105.2	26
106.1	20
107.2	23
109.3	58
116.3	117
117.2	102
118.2	440
119.2	240
122.3	56
123.3	53
128.2	17
129.0	26
130.3	31
132.1	32
133.2	27
134.1	19
136.2	10
139.3	14
140.2	16
142.1	36
143.2	106
144.2	18
145.6	22
147.1	46
151.2	149
152.2	54
153.1	21
157.1	11
158.2	28
159.3	23
163.2	51
165.1	438
166.1	75
170.1	356
171.2	69
173.1	18
174.1	41
175.1	34
177.2	43
178.2	85
179.3	35
180.2	51
181.2	61
182.1	81
183.2	999
184.2	81
185.2	61
186.2	14
189.0	14
190.2	248
191.1	73
192.1	184
193.3	32
194.2	28
195.2	85
196.1	130
197.1	224
198.2	522
199.0	47
200.1	22
202.1	160
204.1	81
205.1	280
206.1	67
208.1	128
209.0	44
210.2	216
211.2	258
212.1	381
213.2	36
216.3	14
218.0	29
219.0	135
220.1	67
221.1	110
222.2	414
223.1	472
224.1	293
225.2	85
227.2	36
237.2	129
239.1	472
240.3	30
249.4	14
256.2	14
268.1	216
311.1	11
313.8	17
