Mass spectrum: ((((4-((Methylthio)methyl)cyclohexyl)methyl)thio)methyl)diphenylsilane; GC-EI-TOF; MS; POSITIVE; 70 V
Name: ((((4-((Methylthio)methyl)cyclohexyl)methyl)thio)methyl)diphenylsilane
Class: Non-natural compound
Formula: C22H30S2Si
Exact mass: 386.155819
SMILES: CSCC1CCC(CSC[SiH](c2ccccc2)c2ccccc2)CC1
InChI: InChI=1S/C22H30S2Si/c1-23-16-19-12-14-20(15-13-19)17-24-18-25(21-8-4-2-5-9-21)22-10-6-3-7-11-22/h2-11,19-20,25H,12-18H2,1H3
Instrument: JMS-T100GCV (JEOL, Akishima, Japan) coupled to Agilent 7890A (Santa Clara, CA, USA) gas chromatograph.
Instrument type: GC-EI-TOF
Ms type: MS
Ion mode: POSITIVE
Ionization: EI
Column name: HP-5 19091J-413 USD364547H (Agilent, Wilmington, USA) with the length 30.0 m, I.D. 0.32 mm, and thickness 0.25 micrometer.
Retention time: 13.74 min
m/z	relative intensity
27.024	16
28.006	345
28.036	7
28.053	7
28.424	4
29.004	5
29.04	21
31.99	134
32.015	4
34.997	13
39.024	18
39.962	10
41.04	73
42.045	6
43.055	21
43.99	10
44.981	14
46.996	12
51.025	9
52.985	25
53.04	20
54.048	18
55.056	85
56.061	7
58.074	4
58.873	5
60.004	7
61.012	225
61.045	4
61.08	4
62.018	12
63.008	11
65.04	20
66.048	10
67	5
67.056	135
68.062	14
69.071	11
73.01	6
73.047	13
74.018	9
75.028	11
77.04	30
78.048	17
79.001	20
79.056	104
80.062	31
81.071	50
82.078	7
85.012	7
87.027	9
89.295	4
91.056	196
92.06	19
93.017	14
93.072	73
94.078	46
95.087	54
103.002	16
104.01	6
105.017	213
105.073	16
105.218	4
106.019	27
107.024	10
107.087	55
108.095	214
108.191	6
109.101	71
110.106	9
113.221	4
115.057	9
119.032	21
120.04	5
131.037	6
133.011	6
135.065	5
136.989	27
137.047	4
139.001	5
141.075	188
141.194	4
142.078	18
143.069	8
150.002	5
151.006	39
152.013	229
153.017	47
154.012	21
155.033	21
155.089	12
156.098	52
157.05	5
157.105	18
164.21	5
165.021	13
165.072	20
166.016	5
167.036	7
167.092	7
173.05	4
180.041	23
181.049	164
181.307	4
182.052	37
183.065	627
183.326	5
183.563	4
184.067	106
184.226	4
185.063	28
193.049	8
194.053	6
195.064	85
195.191	4
196.071	61
197.079	105
198.082	23
199.077	6
203.093	19
204.088	5
207.035	36
208.036	8
209.032	7
211.717	4
213.872	3
215.037	83
216.038	14
217.034	8
227.04	5
229.052	215
229.19	4
230.057	78
230.133	6
231.059	37
232.058	9
243.362	4
243.952	4
245.081	5
253.024	6
261.023	6
276.05	10
281.05	16
283.063	5
293.088	4
306.63	4
321.486	4
323.128	48
324.13	15
325.141	20
326.148	7
339.161	56
340.159	18
341.156	6
371.133	65
372.136	21
373.128	11
386.156	53
387.158	17
388.158	9
