Mass spectrum: Sulpiride; LC-ESI-QQ; MS2; ESI; NEGATIVE; CID; CE 30 V; [M-H]-
Name: Sulpiride
Class: Non-natural product
Formula: C15H23N3O4S
Exact mass: 341.140916
SMILES: CCN1CCCC1CNC(=O)C2=C(C=CC(=C2)S(=O)(=O)N)OC
InChI: InChI=1S/C15H23N3O4S/c1-3-18-8-4-5-11(18)10-17-15(19)13-9-12(23(16,20)21)6-7-14(13)22-2/h6-7,9,11H,3-5,8,10H2,1-2H3,(H,17,19)(H2,16,20,21)
Instrument: LCMS-8040 coupled to Nexera XR (Shimadzu, Kyoto, Japan).
Instrument type: LC-ESI-QQ
Ms type: MS2
Ion mode: NEGATIVE
Collision energy: 30 V
Fragmentation mode: CID
Ionization: ESI
Column name: InertSustain C18 ID 2.1 microm, 2.1 x 100 mm (GL Science, Tokyo, Japan).
Retention time: 3.846 min
Precursor m/z: 340.133639
Precursor type: [M-H]-
m/z	relative intensity
62.1	19
80.0	253
92.1	28
119.6	14
122.0	14
139.8	29
155.9	999
157.8	18
185.6	33
260.9	36
