Mass spectrum: Medazepam; LC-ESI-QQ; MS2; ESI; POSITIVE; CID; CE 50 V; [M+H]+
Name: Medazepam
Class: Non-natural product
Formula: C16H15ClN2
Exact mass: 270.092368
SMILES: CN1CCN=C(C2=C1C=CC(=C2)Cl)C3=CC=CC=C3
InChI: InChI=1S/C16H15ClN2/c1-19-10-9-18-16(12-5-3-2-4-6-12)14-11-13(17)7-8-15(14)19/h2-8,11H,9-10H2,1H3
Instrument: LCMS-8040 coupled to Nexera XR (Shimadzu, Kyoto, Japan).
Instrument type: LC-ESI-QQ
Ms type: MS2
Ion mode: POSITIVE
Ionization: ESI
Collision energy: 50 V
Fragmentation mode: CID
Column name: InertSustain C18 ID 2.1 microm, 2.1 x 100 mm (GL Science, Tokyo, Japan).
Retention time: 10.841 min
Precursor m/z: 271.099645
Precursor type: [M+H]+
m/z	relative intensity
30.3	65
39.4	14
42.3	39
44.3	72
65.2	134
77.3	39
89.2	64
90.2	56
91.2	999
99.2	18
101.2	16
102.2	13
103.2	17
104.1	18
111.1	24
115.2	11
117.2	155
123.1	11
124.0	12
125.1	48
127.2	11
128.2	71
129.1	31
130.2	64
131.2	20
138.1	25
140.2	12
151.1	11
152.1	20
163.1	17
165.1	359
166.1	29
176.1	20
177.2	20
178.2	104
179.1	79
180.2	30
190.2	10
191.2	41
192.2	123
193.2	160
194.2	37
203.2	15
204.1	69
206.2	238
207.2	76
218.2	29
227.1	18
228.1	10
271.0	12
