Mass spectrum: Acetaminophen; LC-ESI-QQ; MS2; ESI; POSITIVE; CID; CE 50 V; [M+H]+
Name: Acetaminophen
Class: Non-natural product
Formula: C8H9NO2
Exact mass: 151.063325
SMILES: CC(=O)NC1=CC=C(C=C1)O
InChI: InChI=1S/C8H9NO2/c1-6(10)9-7-2-4-8(11)5-3-7/h2-5,11H,1H3,(H,9,10)
Instrument: LCMS-8040 coupled to Nexera XR (Shimadzu, Kyoto, Japan).
Instrument type: LC-ESI-QQ
Ms type: MS2
Ion mode: POSITIVE
Collision energy: 50 V
Fragmentation mode: CID
Ionization: ESI
Column name: InertSustain C18 ID 2.1 microm, 2.1 x 100 mm (GL Science, Tokyo, Japan).
Retention time: 4.203 min
Precursor m/z: 152.070602
Precursor type: [M+H]+
m/z	relative intensity
15.4	53
29.4	30
33.0	19
37.2	31
38.3	35
39.3	999
40.2	18
41.2	22
43.2	788
44.1	14
53.3	71
54.1	27
55.2	21
65.2	639
66.2	135
67.1	103
73.9	11
77.2	18
78.3	19
80.2	268
82.2	14
92.2	76
93.2	143
94.2	14
109.1	59
110.3	93
152.0	56
