Mass spectrum: Aldicarb; LC-ESI-QTOF; MS2; [M+H]+; CID; CE 40 V
Name: Aldicarb
Class: Non-natural product
Formula: C7H14N2O2S
Exact mass: 190.077599
SMILES: CC(C)(C=NOC(=O)NC)SC
InChI: InChI=1S/C7H14N2O2S/c1-7(2,12-4)5-9-11-6(10)8-3/h5H,1-4H3,(H,8,10)
Instrument: X500R QTOF (AB Sciex LLC, MA, USA) coupled to ExionLC AD (AB Sciex LLC, MA, USA).
Instrument type: LC-ESI-QTOF
Ms type: MS2
Ion mode: POSITIVE
Collision energy: 40 V
Fragmentation mode: CID
Ionization: ESI
Column name: TSKgel ODS-100S 5 um, 2.1 mm Ã— 250 mm, TOSOH
Retention time: 12.7 min
Precursor m/z: 191.084876
Precursor type: [M+H]+
m/z	relative intensity
39.0227	186
41.0384	416
43.0541	60
44.9793	51
46.995	142
49.0105	262
58.9947	52
61.0104	214
70.065	88
89.0419	999
100.0213	188
