Mass spectrum: Alprazolam; LC-ESI-QQ; MS2; ESI; POSITIVE; CE 50 V; [M+H]+
Name: Alprazolam
Class: Non-natural product
Formula: C17H13ClN4
Exact mass: 308.08286
SMILES: CC1=NN=C2N1C3=C(C=C(C=C3)Cl)C(=NC2)C4=CC=CC=C4
InChI: InChI=1S/C17H13ClN4/c1-11-20-21-16-10-19-17(12-5-3-2-4-6-12)14-9-13(18)7-8-15(14)22(11)16/h2-9H,10H2,1H3
Instrument: LCMS-8040 coupled to Nexera XR (Shimadzu, Kyoro, Japan).
Instrument type: LC-ESI-QQ
Ms type: MS2
Ion mode: POSITIVE
Collision energy: 50 V
Ionization: ESI
Column name: InertSustain C18 ID 2.1 microm, 2.1 x 100 mm (GL Science, Tokyo, Japan).
Retention time: 8.958 min
Precursor m/z: 309.09014
Precursor type: [M+H]+
m/z	relative intensity
42	36
53	14
55	13
65	16
66	17
75	30
76	24
77	187
88.5	14
89.25	21
90	20
91	20
92	14
99	27
101	17
102	84
103	69
104	21
111	173
115	47
116	14
123	12
126	16
127	17
128	20
129	79
131	13
136	36
138	87
140	14
142	33
143	17
151	79
152	48
153	38
163	25
164	84
165	56
176	33
177	143
178	82
179	47
188	13
189	13
190	31
191	16
192	14
198	21
199	56
203	70
205	999
206	32
214	23
215	17
216	22
217	90
218	72
219	71
224	69
239	66
240	20
244	12
245	17
246	36
252	27
253	21
255	16
263	22
281	43
309	14
