Mass spectrum: 1-(3,3-Diphenyl-2,3-dihydrobenzo[d][1,3]thiasilol-5-yl)pyrrolidine; GC-EI-TOF; MS; POSITIVE; 70 V
Name: 1-(3,3-Diphenyl-2,3-dihydrobenzo[d][1,3]thiasilol-5-yl)pyrrolidine
Class: Non-natural compound
Formula: C23H23NSSi
Exact mass: 373.132043
SMILES: c1ccccc1[Si]1(CSc2ccc(cc21)N1CCCC1)c1ccccc1
InChI: InChI=1S/C23H23NSSi/c1-3-9-20(10-4-1)26(21-11-5-2-6-12-21)18-25-22-14-13-19(17-23(22)26)24-15-7-8-16-24/h1-6,9-14,17H,7-8,15-16,18H2
Instrument: JMS-T100GCV (JEOL, Akishima, Japan) coupled to Agilent 7890A (Santa Clara, CA, USA) gas chromatograph.
Instrument type: GC-EI-TOF
Ms type: MS
Ion mode: POSITIVE
Ionization: EI
Column name: HP-5 19091J-413 USD364547H (Agilent, Wilmington, USA) with the length 30.0 m, I.D. 0.32 mm, and thickness 0.25 micrometer.
Retention time: 14.42 min
m/z	relative intensity
28.006	13
31.99	8
39.024	4
41.039	5
42.035	4
43.043	13
51.024	5
52.985	6
55.055	3
63.024	4
65.04	5
75.024	3
76.032	3
77.04	19
78.046	7
79.001	4
89.04	12
90.047	5
91.055	41
92.059	4
102.046	2
103.001	5
103.053	3
104.057	3
105.017	37
106.018	5
107.014	2
112.51	3
113.014	2
115.055	8
116.052	5
117.016	2
117.06	3
119.018	2
119.517	3
120.021	3
121.013	2
126.016	7
126.52	34
127.023	12
127.523	5
128.057	3
129.017	4
129.063	2
130.066	8
131.071	2
133.022	2
133.528	3
134.03	2
134.974	3
135.044	2
136.989	9
139.056	4
140.04	1
141.07	2
141.542	4
142.054	1
142.548	2
144.082	4
147.039	10
147.543	39
148.044	10
148.545	5
148.988	7
149.044	2
149.993	2
151.056	6
152.063	19
153.017	3
153.069	7
154.074	3
155.032	5
158.097	2
161.987	2
162.565	11
163.003	2
163.066	10
163.573	11
164.066	9
165.071	76
166.076	17
167.032	3
167.084	6
169.573	3
175.999	4
176.061	2
177.008	2
177.068	2
178.079	12
179.032	6
179.085	8
180.04	8
181.048	18
182.049	4
183.061	2
186.567	11
187.068	4
188.002	2
190.069	3
191.029	2
191.079	3
192.082	4
193.047	9
194.052	3
195.063	6
196.064	2
197.044	3
202.08	2
204.032	6
204.083	7
205.043	5
206.045	4
206.098	4
207.037	6
208.054	2
211.004	3
212.012	3
213.02	6
214.021	2
215.086	2
217.046	2
218.047	3
219.054	4
220.059	5
221.062	2
223.006	2
225.02	13
226.027	10
227.032	5
228.032	2
228.095	2
229.049	3
231.062	2
232.06	3
233.068	4
234.075	3
234.129	5
239.036	11
240.035	10
241.04	4
241.103	2
243.06	2
246.075	3
251.025	2
252.034	7
253.045	7
254.048	9
255.061	8
256.065	3
257.078	14
258.078	6
259.081	2
260.088	2
264.032	3
265.042	2
266.047	6
267.059	7
268.064	6
269.075	4
270.085	5
271.092	4
272.095	2
280.061	3
281.059	3
282.078	9
283.091	5
284.092	3
294.078	5
295.083	3
296.092	4
297.098	2
298.105	4
303.066	2
317.083	23
318.084	6
319.082	3
326.137	7
327.14	2
330.08	3
331.086	4
332.093	3
344.094	2
345.1	6
346.103	2
370.107	2
371.115	3
372.125	217
372.26	13
373.132	999
374.134	306
374.532	1
374.761	2
375.132	115
376.133	25
377.132	4
