Mass spectrum: Pyriftalid; LC-ESI-QTOF; MS2; [M+H]+; CID; CE 10V
Name: Pyriftalid
Class: Non-natural product
Formula: C15H14N2O4S
Exact mass: 318.067428
SMILES: CC1C2=C(C(=CC=C2)SC3=NC(=CC(=N3)OC)OC)C(=O)O1
InChI: InChI=1S/C15H14N2O4S/c1-8-9-5-4-6-10(13(9)14(18)21-8)22-15-16-11(19-2)7-12(17-15)20-3/h4-8H,1-3H3
Instrument: X500R QTOF (AB Sciex LLC, MA, USA) coupled to ExionLC AD (AB Sciex LLC, MA, USA).
Instrument type: LC-ESI-QTOF
Ms type: MS2
Ion mode: POSITIVE
Collision energy: 10 V
Fragmentation mode: CID
Ionization: ESI
Column name: TSKgel ODS-100S 5 um, 2.1 mm Ã— 250 mm, TOSOH
Retention time: 14.3 min
Precursor m/z: 319.074705
Precursor type: [M+H]+
m/z	relative intensity
319.0827	999
