Mass spectrum: Sulindac; LC-ESI-QQ; MS2; ESI; POSITIVE; CID; CE 20 V; [M+H]+
Name: Sulindac
Class: Non-natural product
Formula: C20H17FO3S
Exact mass: 356.088244
SMILES: CC\1=C(C2=C(/C1=C\C3=CC=C(C=C3)S(=O)C)C=CC(=C2)F)CC(=O)O
InChI: InChI=1S/C20H17FO3S/c1-12-17(9-13-3-6-15(7-4-13)25(2)24)16-8-5-14(21)10-19(16)18(12)11-20(22)23/h3-10H,11H2,1-2H3,(H,22,23)/b17-9-
Instrument: LCMS-8040 coupled to Nexera XR (Shimadzu, Kyoto, Japan).
Instrument type: LC-ESI-QQ
Ms type: MS2
Ion mode: POSITIVE
Collision energy: 20 V
Fragmentation mode: CID
Ionization: ESI
Column name: InertSustain C18 ID 2.1 microm, 2.1 x 100 mm (GL Science, Tokyo, Japan).
Retention time: 7.915 min
Precursor m/z: 357.095521
Precursor type: [M+H]+
m/z	relative intensity
173.1	22
191.1	15
233.2	403
234.2	44
235.2	34
247.2	63
248.2	118
249.2	11
280.3	67
282.1	21
294.1	56
295.1	73
296.2	55
297.2	102
311.2	39
338.9	19
340.2	908
342.2	232
357.2	999
