Mass spectrum: S-Ethyl 4-(4-methoxyphenyl)butanethioate; GC-EI-TOF; MS; POSITIVE; 70 V
Name: S-Ethyl 4-(4-methoxyphenyl)butanethioate
Class: Non-natural compound
Formula: C13H18O2S
Exact mass: 238.102751
SMILES: CCSC(=O)CCCC1=CC=C(C=C1)OC
InChI: InChI=1S/C13H18O2S/c1-3-16-13(14)6-4-5-11-7-9-12(15-2)10-8-11/h7-10H,3-6H2,1-2H3
Instrument: JMS-T100GCV (JEOL, Akishima, Japan) coupled to Agilent 7890A (Santa Clara, CA, USA) gas chromatograph.
Instrument type: GC-EI-TOF
Ms type: MS
Ion mode: POSITIVE
Ionization: EI
Column name: HP-5MS 30x0.25 0.25um 19091S-4 (Agilent, Wilmington, USA) with the length 30.0 m, I.D. 0.25 mm, and thickness 0.25 micrometer.
Retention time: 10.73 min
m/z	relative intensity
26.016	9
27.023	93
27.066	1
28.006	10
28.031	43
29.003	4
29.039	108
29.079	1
31.989	4
34.996	33
38.015	3
39.023	40
40.03	4
41.039	48
42.011	5
43.018	5
44.98	22
45.988	13
46.995	12
50.015	12
51.023	46
52.031	40
53.002	3
53.038	15
55.018	23
57.988	9
58.996	16
60.003	6
60.975	5
61.011	25
62.018	12
63.023	31
64.031	15
65.039	58
66.045	7
67.054	3
69.033	10
74.016	3
74.548	9
75.025	12
75.998	7
76.031	9
77.039	148
78.047	232
79.018	3
79.053	37
80.059	2
88.04	2
88.545	5
89.006	8
89.039	44
90.046	33
91.054	174
91.188	1
92.026	7
92.059	17
93.034	3
93.07	4
94.041	8
102.047	9
103.055	38
104.029	3
104.061	14
105.034	6
105.07	30
106.042	30
107.049	12
108.057	14
109.065	11
115.055	35
116.061	11
117.07	22
118.041	7
119.049	45
120.056	14
121.065	999
121.611	3
122.069	86
122.395	1
123.071	5
127.054	6
128.062	4
129.07	3
131.05	9
132.057	7
133.065	17
134.073	916
134.645	3
135.078	182
135.48	2
136.082	15
144.057	65
145.062	9
146.072	3
147.081	43
148.088	38
149.096	39
150.099	5
153.038	5
159.081	104
160.084	13
175.076	5
176.083	13
177.091	610
177.684	2
178.095	73
178.704	1
179.098	7
181.069	4
209.064	4
238.103	326
239.106	47
240.101	17
241.104	2
