Mass spectrum: Flutoprazepam; LC-ESI-QQ; MS2; ESI; POSITIVE; CID; CE 30 V; [M+H]+
Name: Flutoprazepam
Class: Non-natural product
Formula: C19H16ClFN2O
Exact mass: 342.093511
SMILES: C1CC1CN2C(=O)CN=C(C3=C2C=CC(=C3)Cl)C4=CC=CC=C4F
InChI: InChI=1S/C19H16ClFN2O/c20-13-7-8-17-15(9-13)19(14-3-1-2-4-16(14)21)22-10-18(24)23(17)11-12-5-6-12/h1-4,7-9,12H,5-6,10-11H2
Instrument: LCMS-8040 coupled to Nexera XR (Shimadzu, Kyoto, Japan).
Instrument type: LC-ESI-QQ
Ms type: MS2
Ion mode: POSITIVE
Collision energy: 30 V
Fragmentation mode: CID
Ionization: ESI
Column name: InertSustain C18 ID 2.1 microm, 2.1 x 100 mm (GL Science, Tokyo, Japan).
Retention time: 10.152 min
Precursor m/z: 343.100788
Precursor type: [M+H]+
m/z	relative intensity
55.3	47
109.3	12
117.2	12
123.1	11
124.2	12
140.2	135
152.1	19
165.1	81
166.1	22
211.2	22
214.2	18
225.1	16
226.2	101
245.2	24
251.2	10
259.2	18
260.2	22
261.2	85
273.2	37
289.1	999
343.2	52
