Mass spectrum: (E)-1-(1,1,1,4,4,4-hexafluorobuten-2-yl)-4-methoxybenzene; GC-EI-TOF; MS; POSITIVE; 70 V
Name: (E)-1-(1,1,1,4,4,4-hexafluorobuten-2-yl)-4-methoxybenzene
Class: Non-natural compound
Formula: C11H8F6O
Exact mass: 270.047934
SMILES: COc1ccc(cc1)\C(=C/C(F)(F)F)C(F)(F)F
InChI: InChI=1S/C11H8F6O/c1-18-8-4-2-7(3-5-8)9(11(15,16)17)6-10(12,13)14/h2-6H,1H3/b9-6+
Instrument: JMS-T100GCV (JEOL, Akishima, Japan) coupled to Agilent 7890A (Santa Clara, CA, USA) gas chromatograph.
Instrument type: GC-EI-TOF
Ms type: MS
Ion mode: POSITIVE
Ionization: EI
Column name: DB-5MS 122-5532 USA360633H (Agilent, Wilmington, USA) with the length 30.0 m, I.D. 0.25 mm, and thickness 0.25 micrometer.
Retention time: 6.39 min
m/z	relative intensity
28.007	4
38.016	6
39.024	19
50.016	20
51.024	17
53.004	7
57.015	12
61.009	5
62.016	21
63.024	55
64.031	9
68.996	41
74.016	16
75.015	19
76.031	5
77.03	8
81.015	22
83.031	7
85.015	3
86.017	4
87.024	12
88.017	7
89.04	42
90.044	3
92.027	4
93.011	4
94.022	4
95.012	13
98.017	4
99.012	10
100.022	8
100.527	17
101.026	12
102.048	8
103.055	4
105.015	3
106.013	2
107.031	19
108.038	11
109.045	4
110.026	4
111.014	2
112.013	8
113.012	8
114.029	6
117.035	32
118.036	4
119.029	21
120.038	18
121.044	3
125.021	8
125.526	5
126.029	3
127.037	29
131.013	5
132.058	49
133.048	31
134.052	4
135.025	10
137.021	25
138.029	58
139.036	32
140.041	3
143.011	6
145.028	10
149.026	5
150.027	3
151.037	63
152.041	8
153.053	4
156.02	8
157.028	30
158.035	69
159.039	8
163.019	10
166.025	25
167.032	23
168.031	3
169.027	91
170.033	18
171.043	32
172.047	4
173.058	3
176.026	7
177.034	49
178.037	5
181.048	248
182.052	31
183.05	4
184.18	2
185.022	10
186.03	27
187.019	54
188.025	14
189.033	8
199.036	3
200.041	7
201.054	656
201.705	2
202.057	77
203.06	5
207.024	58
208.029	9
216.021	3
219.025	17
220.038	4
227.031	12
231.045	46
232.049	6
235.019	4
236.026	3
239.03	5
240.039	11
251.05	87
252.053	11
254.017	3
255.025	7
269.04	3
270.048	999
270.804	4
271.051	132
272.054	12
