Mass spectrum: 6-(4-{[5-(tetradecanoylamino)pentyl]amino}-4-oxobutanamido)-N,N-dimethylhexan-1-amine N-oxide; ESI-QTOF; MS2; ESI; [M+H]+; CE 50 V
Name: 6-(4-{[5-(tetradecanoylamino)pentyl]amino}-4-oxobutanamido)-N,N-dimethylhexan-1-amine N-oxide
Name: AAO 13-5-2-6
Class: Non-natural product
Formula: C31H62N4O4
Exact mass: 554.477090
SMILES: [O-][N+](C)(C)CCCCCCNC(=O)CCC(=O)NCCCCCNC(=O)CCCCCCCCCCCCC
InChI: InChI=1S/C31H62N4O4/c1-4-5-6-7-8-9-10-11-12-13-17-22-29(36)32-26-19-16-20-27-34-31(38)24-23-30(37)33-25-18-14-15-21-28-35(2,3)39/h4-28H2,1-3H3,(H,32,36)(H,33,37)(H,34,38)
Instrument: X500R QTOF (AB Sciex LLC, MA, USA)
Instrument type: ESI-QTOF
Ms type: MS2
Ion mode: POSITIVE
Collision energy: 50 V
Fragmentation mode: CID
Ionization: ESI
Precursor m/z: 555.484367 
Precursor type: [M+H]+
m/z	relative intensity
30.03371	6
55.05415	11
57.06977	5
58.06508	140
69.06983	9
71.08544	6
81.06989	12
83.08549	36
84.04437	7
84.08076	29
85.10112	8
86.09646	248
95.08551	17
97.10115	6
98.09645	77
100.03936	195
100.07571	7
100.11206	114
103.12296	16
109.10114	13
111.11681	7
112.03937	21
112.11210	16
114.12769	46
123.11683	9
126.12776	25
128.14342	43
130.12266	10
140.10709	8
156.13837	10
157.13365	12
161.16500	55
167.11805	16
168.10203	116
171.14931	9
182.11770	515
184.14443	39
185.12859	421
186.11265	32
199.18063	16
211.14435	12
211.20570	118
213.15997	21
225.16002	11
227.17564	76
228.14712	12
228.23230	43
243.17061	46
284.23347	48
294.27924	15
296.29493	999
313.32145	423
345.28641	40
395.32704	344
476.42125	166
494.43169	58
537.47383	53
555.48438	938
