Mass spectrum: 5-(4-{[2-(tetradecanoylamino)ethyl]amino}-4-oxobutanamido)-N,N-dimethylpentan-1-amine N-oxide; ESI-QTOF; MS; ESI
Name: 5-(4-{[2-(tetradecanoylamino)ethyl]amino}-4-oxobutanamido)-N,N-dimethylpentan-1-amine N-oxide
Name: AAO 13-2-2-5
Class: Non-natural product
Formula: C27H54N4O4
Exact mass: 498.41449
SMILES: O=C(NCCNC(=O)CCCCCCCCCCCCC)CCC(=O)NCCCCC[N+]([O-])(C)C
InChI: InChI=1S/C27H54N4O4/c1-4-5-6-7-8-9-10-11-12-13-15-18-25(32)29-22-23-30-27(34)20-19-26(33)28-21-16-14-17-24-31(2,3)35/h4-24H2,1-3H3,(H,28,33)(H,29,32)(H,30,34)
Instrument: X500R QTOF (AB Sciex LLC, MA, USA)
Instrument type: ESI-QTOF
Ms type: MS
Ion mode: NEGATIVE
Ionization: ESI
m/z	relative intensity
497.40653	999
498.40982	332
499.41260	59
533.38323	200
534.38643	64
535.38113	76
536.38385	22
543.41199	42
557.42760	60
585.42257	160
586.42552	65
587.43770	136
588.44108	46
