Mass spectrum: Olanzapine; LC-ESI-QQ; MS2; ESI; POSITIVE; CID; CE 50 V; [M+H]+
Name: Olanzapine
Class: Non-natural product
Formula: C17H20N4S
Exact mass: 312.140851
SMILES: CC1=CC2=C(S1)NC3=CC=CC=C3N=C2N4CCN(CC4)C
InChI: InChI=1S/C17H20N4S/c1-12-11-13-16(21-9-7-20(2)8-10-21)18-14-5-3-4-6-15(14)19-17(13)22-12/h3-6,11,19H,7-10H2,1-2H3
Instrument: LCMS-8040 coupled to Nexera XR (Shimadzu, Kyoto, Japan).
Instrument type: LC-ESI-QQ
Ms type: MS2
Ion mode: POSITIVE
Collision energy: 50 V
Fragmentation mode: CID
Ionization: ESI
Column name: InertSustain C18 ID 2.1 microm, 2.1 x 100 mm (GL Science, Tokyo, Japan).
Retention time: 8.284 min
Precursor m/z: 313.148128
Precursor type: [M+H]+
m/z	relative intensity
29.3	10
30.4	31
42.3	459
43.4	18
45.0	15
52.6	16
54.1	10
55.3	13
56.4	72
58.3	95
59.5	23
60.2	10
64.8	20
67.2	10
69.3	29
70.2	13
71.3	18
72.3	10
82.4	45
83.3	27
84.3	182
85.3	52
89.4	15
90.2	23
92.3	56
95.3	36
96.1	19
99.3	29
101.4	18
102.3	25
103.0	15
107.1	15
108.2	20
109.2	97
110.3	10
111.3	10
115.2	265
116.1	74
117.2	79
118.2	13
119.3	10
122.2	10
123.2	15
124.0	20
127.1	53
128.2	73
129.2	29
130.8	15
132.4	35
134.1	10
136.1	18
138.3	10
140.1	38
141.1	45
142.3	114
143.2	68
146.1	182
148.0	23
152.1	54
153.1	143
154.2	43
155.2	116
157.0	24
159.1	10
160.1	35
161.0	12
162.0	10
165.2	24
165.8	10
167.2	26
168.2	137
169.2	509
170.1	35
171.1	73
172.9	58
175.2	10
179.1	378
180.1	304
181.2	56
182.3	52
183.2	18
184.3	44
185.2	38
186.1	303
187.1	21
188.2	10
192.0	10
193.1	20
194.2	37
195.2	145
196.0	59
198.1	999
199.1	20
200.1	37
201.0	30
205.2	30
207.2	60
208.2	14
211.2	157
212.1	251
213.1	143
214.2	49
220.1	74
222.2	155
223.2	19
224.1	46
225.5	10
227.0	56
233.9	15
238.9	48
240.3	26
241.1	17
248.1	15
253.1	20
254.0	41
255.0	57
256.1	70
265.7	10
282.1	37
