Mass spectrum: Talipexole; LC-ESI-QQ; MS2; ESI; POSITIVE; CID; CE 50 V; [M+H]+
Name: Talipexole
Class: Non-natural product
Formula: C10H15N3S
Exact mass: 209.098656
SMILES: C=CCN1CCC2=C(CC1)SC(=N2)N
InChI: InChI=1S/C10H15N3S/c1-2-5-13-6-3-8-9(4-7-13)14-10(11)12-8/h2H,1,3-7H2,(H2,11,12)
Instrument: LCMS-8040 coupled to Nexera XR (Shimadzu, Kyoto, Japan).
Instrument type: LC-ESI-QQ
Ms type: MS2
Ion mode: POSITIVE
Collision energy: 50 V
Fragmentation mode: CID
Ionization: ESI
Column name: InertSustain C18 ID 2.1 microm, 2.1 x 100 mm (GL Science, Tokyo, Japan).
Retention time: 4.719 min
Precursor m/z: 210.105933
Precursor type: [M+H]+
m/z	relative intensity
28.4	13
30.2	12
39.2	205
41.3	645
42.3	418
43.3	88
44.2	20
45.1	96
51.1	16
52.1	19
53.3	137
54.3	51
55.3	96
56.2	105
57.3	10
59.2	215
60.2	132
61.2	13
65.2	167
66.2	29
67.2	191
68.4	85
70.2	49
71.2	123
72.3	18
73.2	79
77.2	97
78.2	33
79.2	14
80.3	204
81.3	43
82.2	95
84.3	110
85.2	181
86.2	105
91.3	17
92.2	20
93.3	84
94.3	65
95.1	25
97.2	138
98.3	12
99.1	82
100.2	999
107.2	39
109.3	97
111.2	31
113.1	50
114.1	34
119.1	10
127.1	819
128.4	26
135.1	14
139.2	35
140.2	29
141.0	109
142.0	32
151.1	16
168.0	19
209.9	29
211.8	14
