Mass spectrum: Amoxapine; LC-ESI-QQ; MS2; ESI; POSITIVE; CID; CE 50 V; [M+H]+
Name: Amoxapine
Class: Non-natural product
Formula: C17H16ClN3O
Exact mass: 313.098178
SMILES: C1CN(CCN1)C2=NC3=CC=CC=C3OC4=C2C=C(C=C4)Cl
InChI: InChI=1S/C17H16ClN3O/c18-12-5-6-15-13(11-12)17(21-9-7-19-8-10-21)20-14-3-1-2-4-16(14)22-15/h1-6,11,19H,7-10H2
Instrument: LCMS-8040 coupled to Nexera XR (Shimadzu, Kyoto, Japan).
Instrument type: LC-ESI-QQ
Ms type: MS2
Ion mode: POSITIVE
Collision energy: 50 V
Fragmentation mode: CID
Ionization: ESI
Column name: InertSustain C18 ID 2.1 microm, 2.1 x 100 mm (GL Science, Tokyo, Japan).
Retention time: 8.762 min
Precursor m/z: 314.105455
Precursor type: [M+H]+
m/z	relative intensity
28.4	27
30.5	13
39.5	10
41.3	14
42.4	34
43.3	27
44.3	47
70.2	73
71.2	30
77.3	19
93.3	23
104.3	24
118.2	44
126.1	15
138.2	70
139.2	16
140.1	24
153.1	13
164.1	228
165.1	51
166.2	14
167.1	12
173.2	63
174.2	50
179.2	26
180.1	11
181.1	12
190.1	21
191.2	14
193.1	999
200.1	89
202.3	16
206.1	24
207.2	38
215.1	11
218.0	17
228.0	71
233.3	14
235.1	30
240.1	12
241.8	12
253.4	15
254.5	11
269.0	10
271.3	43
