Mass spectrum: (((4-Bromophenyl)thio)methyl)diphenylsilane; GC-EI-TOF; MS; POSITIVE; 70 V
Name: (((4-Bromophenyl)thio)methyl)diphenylsilane
Class: Non-natural compound
Formula: C19H17BrSSi
Exact mass: 384.000361
SMILES: Brc1ccc(SC[SiH](c2ccccc2)c2ccccc2)cc1
InChI: InChI=1S/C19H17BrSSi/c20-16-11-13-17(14-12-16)21-15-22(18-7-3-1-4-8-18)19-9-5-2-6-10-19/h1-14,22H,15H2
Instrument: JMS-T100GCV (JEOL, Akishima, Japan) coupled to Agilent 7890A (Santa Clara, CA, USA) gas chromatograph.
Instrument type: GC-EI-TOF
Ms type: MS
Ion mode: POSITIVE
Ionization: EI
Column name: HP-5 19091J-413 USD364547H (Agilent, Wilmington, USA) with the length 30.0 m, I.D. 0.32 mm, and thickness 0.25 micrometer.
Retention time: 12.71 min
m/z	relative intensity
28.006	29
28.985	3
31.99	10
39.024	8
43.001	6
44.981	51
45.987	3
50.017	16
51.024	21
52.032	4
52.985	62
53.989	5
55.001	8
57.989	2
63.024	13
64.031	3
65.04	15
65.993	5
67.001	11
68.981	10
74.017	4
75.025	20
76.032	24
76.986	6
77.04	32
77.993	5
78.048	31
79.001	49
79.054	4
80.005	6
81.016	6
81.989	6
89.04	12
90.047	9
91.055	54
92.009	3
92.059	4
93.017	31
94.019	3
95.016	1
103.002	34
104.007	9
105.017	366
106.019	41
106.896	5
107.016	14
108.005	44
108.894	5
109.011	6
110.002	2
115.056	6
117.017	10
118.024	4
119.032	21
120.037	4
121.013	52
122.021	70
123.023	7
124.017	3
128.064	3
129.017	15
130.022	3
131.033	12
135.981	2
136.989	10
139.057	2
143.033	3
148.989	3
149.997	8
151.002	3
151.056	4
152.064	20
153.017	4
153.071	6
154.025	3
154.08	3
154.952	9
155.033	39
155.957	2
156.035	6
156.949	9
157.047	7
157.956	3
164.064	2
165.072	41
166.077	11
167.033	6
167.087	9
168.038	2
168.966	7
169.048	3
170.965	6
179.033	10
180.041	43
180.173	1
181.048	254
181.322	4
182.051	49
183.064	999
183.733	3
184.066	175
184.699	2
185.063	44
185.713	1
185.917	3
186.065	5
186.925	7
187.919	3
188.922	8
193.048	10
194.055	5
195.064	54
195.198	2
196.071	109
197.078	128
197.275	1
198.08	24
199.078	6
200.941	11
202.939	11
212.011	2
213.02	11
214.026	4
214.901	3
215.035	8
216.038	2
216.898	3
225.021	3
226.028	6
227.036	20
228.041	8
228.908	1
229.042	3
229.906	2
257.08	3
258.959	3
259.093	2
260.967	5
261.966	2
262.972	3
290.929	3
292.941	7
294.944	5
304.074	2
304.945	5
305.081	2
305.95	2
306.946	5
307.948	2
337.004	5
339.003	5
368.977	2
370.977	2
384	125
384.264	1
385.003	34
385.999	135
387.001	35
387.998	13
388.996	3
