Mass spectrum: Imidacloprid; LC-ESI-QTOF; MS2; [M+H]+; CID; CE 60V
Name: Imidacloprid
Class: Non-natural product
Formula: C9H10ClN5O2
Exact mass: 255.052302
SMILES: C1CN(C(=N[N+](=O)[O-])N1)CC2=CN=C(C=C2)Cl
InChI: InChI=1S/C9H10ClN5O2/c10-8-2-1-7(5-12-8)6-14-4-3-11-9(14)13-15(16)17/h1-2,5H,3-4,6H2,(H,11,13)
Instrument: X500R QTOF (AB Sciex LLC, MA, USA) coupled to ExionLC AD (AB Sciex LLC, MA, USA).
Instrument type: LC-ESI-QTOF
Ms type: MS2
Ion mode: POSITIVE
Collision energy: 60 V
Fragmentation mode: CID
Ionization: ESI
Column name: TSKgel ODS-100S 5 um, 2.1 mm Ã— 250 mm, TOSOH
Retention time: 11.1 min
Precursor m/z: 256.059579
Precursor type: [M+H]+
m/z	relative intensity
39.0228	30
42.0335	68
43.0287	55
44.0492	119
51.0227	36
56.0492	59
57.0445	37
63.0226	46
65.0385	91
69.0443	56
72.9838	84
76.0179	99
77.026	41
77.0384	87
78.0336	493
79.0414	55
79.0542	51
80.0492	272
84.0556	219
90.0338	270
91.0415	225
92.0371	132
92.049	209
93.0444	183
93.0574	78
95.06	54
96.0444	37
98.9996	164
103.0291	201
104.0371	94
104.0492	182
105.0447	956
106.0526	138
106.0647	201
107.0605	213
108.0677	75
109.0634	119
111.9946	95
113.0021	130
114.0102	77
116.037	47
117.0444	127
117.0559	70
118.0407	133
118.0521	370
119.0486	126
119.0599	394
120.0558	455
121.0395	75
121.0631	96
122.0708	67
123.0549	50
125.9982	59
126.0102	158
127.0179	202
129.0448	67
130.0399	139
131.0482	70
131.0601	336
132.0561	171
132.0682	165
133.0636	316
133.0753	118
134.0712	168
135.0785	82
139.0058	174
141.0212	203
145.0509	147
146.059	63
146.0712	446
147.0666	562
148.0752	51
148.0865	167
153.0086	233
157.0637	276
158.0714	376
159.0789	602
165.0215	49
166.0168	286
167.0369	63
172.0748	54
173.0821	999
174.0899	366
175.0979	203
180.0196	400
181.0278	160
207.043	109
208.0518	186
209.059	658
