Mass spectrum: Nitrazepam; LC-ESI-QQ; MS2; ESI; POSITIVE; CID; CE 50 V; [M+H]+
Name: Nitrazepam
Class: Non-natural product
Formula: C15H11N3O3
Exact mass: 281.08003
SMILES: C1C(=O)NC2=C(C=C(C=C2)[N+](=O)[O-])C(=N1)C3=CC=CC=C3
InChI: InChI=1S/C15H11N3O3/c19-14-9-16-15(10-4-2-1-3-5-10)12-8-11(18(20)21)6-7-13(12)17-14/h1-8H,9H2,(H,17,19)
Instrument: LCMS-8040 coupled to Nexera XR (Shimadzu, Kyoto, Japan).
Instrument type: LC-ESI-QQ
Ms type: MS2
Ion mode: POSITIVE
Collision energy: 50 V
Fragmentation mode: CID
Ionization: ESI
Column name: InertSustain C18 ID 2.1 microm, 2.1 x 100 mm (GL Science, Tokyo, Japan).
Retention time: 8.592 min
Precursor m/z: 282.08731
Precursor type: [M+H]+
m/z	relative intensity
65.1	43
76.2	26
77.2	159
78.2	29
80.5	11
89.2	26
90.2	18
91.2	70
92.1	15
102.2	35
103.2	124
104.2	200
105.3	31
115.3	30
116.3	13
117.2	22
127.1	21
128.3	33
129.1	84
130.2	65
131.2	17
139.2	14
140.0	11
151.1	103
152.1	277
153.2	226
154.2	48
156.3	14
163.2	11
164.2	48
165.2	90
166.2	13
167.1	49
168.1	44
176.0	16
177.1	26
178.2	43
180.1	999
182.3	15
190.2	291
191.2	77
192.1	65
193.3	15
194.3	25
195.0	13
205.3	83
206.1	163
207.1	320
216.9	17
218.1	12
219.0	11
232.3	12
236.2	37
