Mass spectrum: Clobazam; LC-ESI-QQ; MS2; ESI; POSITIVE; CE 40 V; [M+NH4]+
Name: Clobazam
Class: Non-natural product
Formula: C16H13ClN2O2
Exact mass: 300.06655
SMILES: CN1C(=O)CC(=O)N(C2=C1C=CC(=C2)Cl)C3=CC=CC=C3
InChI: InChI=1S/C16H13ClN2O2/c1-18-13-8-7-11(17)9-14(13)19(16(21)10-15(18)20)12-5-3-2-4-6-12/h2-9H,10H2,1H3
Instrument: LCMS-8040 coupled to Nexera XR (Shimadzu, Kyoto, Japan).
Instrument type: LC-ESI-QQ
Ms type: MS2
Ion mode: POSITIVE
Collision energy: 40 V
Ionization: ESI
Column name: InertSustain C18 ID 2.1 microm, 2.1 x 100 mm (GL Science, Tokyo, Japan).
Retention time: 8.818 min
Precursor m/z: 318.10092
Precursor type: [M+NH4]+
m/z	relative intensity
44	15
77	59
105	405
112	10
117	37
140	25
141	10
153	167
166	24
181	116
182	59
195	39
203	17
206	15
207	10
215	42
216	243
217	10
218	43
222	19
224	999
244	88
257	13
259	892
301	11
