Mass spectrum: Timiperone; LC-ESI-QQ; MS; ESI; NEGATIVE
Name: Timiperone
Class: Non-natural product
Formula: C22H24FN3OS
Exact mass: 397.162399
SMILES: C1CN(CCC1N2C3=CC=CC=C3NC2=S)CCCC(=O)C4=CC=C(C=C4)F
InChI: InChI=1S/C22H24FN3OS/c23-17-9-7-16(8-10-17)21(27)6-3-13-25-14-11-18(12-15-25)26-20-5-2-1-4-19(20)24-22(26)28/h1-2,4-5,7-10,18H,3,6,11-15H2,(H,24,28)
Instrument: LCMS-8040 coupled to Nexera XR (Shimadzu, Kyoto, Japan).
Instrument type: LC-ESI-QQ
Ms type: MS
Ion mode: NEGATIVE
Ionization: ESI
Column name: InertSustain C18 ID 2.1 microm, 2.1 x 100 mm (GL Science, Tokyo, Japan).
Retention time: 9.191 min
m/z	relative intensity
396.2	999
397.2	245
398.2	67
421.1	33
431.2	22
432.2	12
454.1	25
464.1	42
465.2	11
481.1	12
