Mass spectrum: Indometacin; LC-ESI-QQ; MS2; ESI; NEGATIVE; CID; CE 50 V; [M-H]-
Name: Indometacin
Class: Non-natural product
Formula: C19H16ClNO4
Exact mass: 357.076783
SMILES: CC1=C(C2=C(N1C(=O)C3=CC=C(C=C3)Cl)C=CC(=C2)OC)CC(=O)O
InChI: InChI=1S/C19H16ClNO4/c1-11-15(10-18(22)23)16-9-14(25-2)7-8-17(16)21(11)19(24)12-3-5-13(20)6-4-12/h3-9H,10H2,1-2H3,(H,22,23)
Instrument: LCMS-8040 coupled to Nexera XR (Shimadzu, Kyoto, Japan).
Instrument type: LC-ESI-QQ
Ms type: MS2
Ion mode: NEGATIVE
Collision energy: 50 V
Fragmentation mode: CID
Ionization: ESI
Column name: InertSustain C18 ID 2.1 microm, 2.1 x 100 mm (GL Science, Tokyo, Japan).
Retention time: 9.281 min
Precursor m/z: 356.069506
Precursor type: [M-H]-
m/z	relative intensity
35.1	270
41.2	33
110.9	177
128.6	56
141.8	34
143.7	51
156.3	27
157.9	999
172.3	14
184.0	28
206.2	22
216.8	122
218.1	80
224.0	33
226.0	14
226.9	33
231.9	13
232.6	56
245.1	58
246.0	25
249.7	11
253.1	247
254.1	78
255.0	37
267.0	81
268.2	103
269.5	33
280.1	93
281.1	380
281.9	383
296.1	35
297.1	28
311.8	28
