Mass spectrum: Propyphenazone; LC-ESI-QQ; MS2; ESI; POSITIVE; CID; CE 40 V; [M+H]+
Name: Propyphenazone
Class: Non-natural product
Formula: C14H18N2O
Exact mass: 230.141905
SMILES: CC1=C(C(=O)N(N1C)C2=CC=CC=C2)C(C)C
InChI: InChI=1S/C14H18N2O/c1-10(2)13-11(3)15(4)16(14(13)17)12-8-6-5-7-9-12/h5-10H,1-4H3
Instrument: LCMS-8040 coupled to Nexera XR (Shimadzu, Kyoto, Japan).
Instrument type: LC-ESI-QQ
Ms type: MS2
Ion mode: POSITIVE
Collision energy: 40 V
Fragmentation mode: CID
Ionization: ESI
Column name: InertSustain C18 ID 2.1 microm, 2.1 x 100 mm (GL Science, Tokyo, Japan).
Retention time: 8.601 min
Precursor m/z: 231.149182
Precursor type: [M+H]+
m/z	relative intensity
27.4	11
29.3	11
39.4	13
41.3	31
42.3	30
43.2	57
44.2	23
51.2	12
53.3	20
55.2	55
56.2	999
58.2	41
65.2	48
67.2	21
77.2	394
78.3	14
79.2	29
80.3	29
81.2	43
82.3	166
91.1	26
92.2	90
93.3	13
94.2	64
95.2	51
96.2	81
103.1	29
104.2	92
105.1	15
106.1	12
108.2	15
110.2	11
112.2	19
115.1	39
116.1	15
117.1	84
118.2	88
120.2	62
123.1	11
124.1	17
130.1	75
131.2	50
132.2	24
139.2	15
142.1	21
143.1	29
144.1	23
145.1	16
146.1	37
156.2	17
158.2	16
185.1	14
189.0	13
201.1	43
231.3	14
