Mass spectrum: Nordiazepam; LC-ESI-QQ; MS2; ESI; POSITIVE; CID; CE 40 V; [M+H]+
Name: Nordiazepam
Class: Non-natural product
Formula: C15H11ClN2O
Exact mass: 270.055983
SMILES: C1C(=O)NC2=C(C=C(C=C2)Cl)C(=N1)C3=CC=CC=C3
InChI: InChI=1S/C15H11ClN2O/c16-11-6-7-13-12(8-11)15(17-9-14(19)18-13)10-4-2-1-3-5-10/h1-8H,9H2,(H,18,19)
Instrument: LCMS-8040 coupled to Nexera XR (Shimadzu, Kyoto, Japan).
Instrument type: LC-ESI-QQ
Ms type: MS2
Ion mode: POSITIVE
Collision energy: 40 V
Fragmentation mode: CID
Ionization: ESI
Column name: InertSustain C18 ID 2.1 microm, 2.1 x 100 mm (GL Science, Tokyo, Japan).
Retention time: 9.417 min
Precursor m/z: 271.06326
Precursor type: [M+H]+
m/z	relative intensity
28.3	37
30.3	13
65.3	48
77.2	189
78.2	16
79.3	22
89.2	64
90.3	47
91.2	479
101.2	11
102.2	53
103.2	77
104.2	269
105.2	194
111.2	92
113.1	141
116.2	170
117.2	40
123.1	39
124.1	11
127.2	126
129.1	61
130.2	148
132.2	11
133.2	13
138.1	310
140.1	999
150.1	55
151.1	31
152.2	36
153.0	12
158.2	60
163.1	33
165.1	542
166.2	86
179.2	61
180.1	192
181.2	74
182.3	17
190.1	182
191.2	108
192.2	72
193.1	54
199.1	41
201.0	20
205.3	22
206.2	72
207.2	215
208.1	288
214.1	83
216.1	10
217.2	21
218.2	40
219.2	16
226.2	52
227.1	27
235.1	19
241.2	41
243.2	11
271.0	47
