Mass spectrum: Ibuprofen; LC-ESI-QQ; MS2; ESI; POSITIVE; CID; CE 50 V; [M+NH4]+
Name: Ibuprofen
Class: Non-natural product
Formula: C13H18O2
Exact mass: 206.13068
SMILES: CC(C)CC1=CC=C(C=C1)C(C)C(=O)O
InChI: InChI=1S/C13H18O2/c1-9(2)8-11-4-6-12(7-5-11)10(3)13(14)15/h4-7,9-10H,8H2,1-3H3,(H,14,15)
Instrument: LCMS-8040 coupled to Nexera XR (Shimadzu, Kyoto, Japan).
Instrument type: LC-ESI-QQ
Ms type: MS2
Ion mode: POSITIVE
Collision energy: 50 V
Fragmentation mode: CID
Ionization: ESI
Column name: InertSustain C18 ID 2.1 microm, 2.1 x 100 mm (GL Science, Tokyo, Japan).
Retention time: 9.586 min
Precursor m/z: 224.164502
Precursor type: [M+NH4]+
m/z	relative intensity
18.4	999
27.4	18
29.4	25
39.3	17
41.3	57
43.2	43
57.2	16
77.2	67
78.2	12
79.2	25
91.2	84
103.2	31
104.3	21
105.2	28
115.2	17
117.2	58
119.2	21
