Mass spectrum: Trimeprazine; LC-ESI-QQ; MS; ESI; POSITIVE
Name: Trimeprazine
Class: Non-natural product
Formula: C18H22N2S
Exact mass: 298.150361
SMILES: CC(CN1C2=CC=CC=C2SC3=CC=CC=C31)CN(C)C
InChI: InChI=1S/C18H22N2S/c1-14(12-19(2)3)13-20-15-8-4-6-10-17(15)21-18-11-7-5-9-16(18)20/h4-11,14H,12-13H2,1-3H3
Instrument: LCMS-8040 coupled to Nexera XR (Shimadzu, Kyoto, Japan).
Instrument type: LC-ESI-QQ
Ms type: MS
Ion mode: POSITIVE
Ionization: ESI
Column name: InertSustain C18 ID 2.1 microm, 2.1 x 100 mm (GL Science, Tokyo, Japan).
Retention time: 9.227 min
m/z	relative intensity
299.3	999
300.3	224
301.3	44
