Mass spectrum: Desipramine; LC-ESI-QQ; MS2; ESI; POSITIVE; CID; CE 20 V; [M+H]+
Name: Desipramine
Class: Non-natural product
Formula: C18H22N2
Exact mass: 266.17829
SMILES: CNCCCN1C2=CC=CC=C2CCC3=CC=CC=C31
InChI: InChI=1S/C18H22N2/c1-19-13-6-14-20-17-9-4-2-7-15(17)11-12-16-8-3-5-10-18(16)20/h2-5,7-10,19H,6,11-14H2,1H3
Instrument: LCMS-8040 coupled to Nexera XR (Shimadzu, Kyoto, Japan).
Instrument type: LC-ESI-QQ
Ms type: MS2
Ion mode: POSITIVE
Collision energy: 20 V
Fragmentation mode: CID
Ionization: ESI
Column name: InertSustain C18 ID 2.1 microm, 2.1 x 100 mm (GL Science, Tokyo, Japan).
Retention time: 8.466 min
Precursor m/z: 267.185567
Precursor type: [M+H]+
m/z	relative intensity
44.3	100
72.3	999
208.2	115
236.2	46
267.3	47
