Mass spectrum: Acetylpheneturide; LC-ESI-QQ; MS2; ESI; NEGATIVE; CID; CE 40 V; [M-H]-
Name: Acetylpheneturide
Class: Non-natural product
Formula: C13H16N2O3
Exact mass: 248.116085
SMILES: CCC(C1=CC=CC=C1)C(=O)NC(=O)NC(=O)C
InChI: InChI=1S/C13H16N2O3/c1-3-11(10-7-5-4-6-8-10)12(17)15-13(18)14-9(2)16/h4-8,11H,3H2,1-2H3,(H2,14,15,16,17,18)
Instrument: LCMS-8040 coupled to Nexera XR (Shimadzu, Kyoto, Japan).
Instrument type: LC-ESI-QQ
Ms type: MS2
Ion mode: NEGATIVE
Collision energy: 40 V
Fragmentation mode: CID
Ionization: ESI
Column name: InertSustain C18 ID 2.1 microm, 2.1 x 100 mm (GL Science, Tokyo, Japan).
Retention time: 8.901 min
Precursor m/z: 247.108808
Precursor type: [M-H]-
m/z	relative intensity
42.1	999
58.1	386
