Mass spectrum: S-Ethyl S-Ethyl 4-methylthiobenzothioate; GC-EI-TOF; MS; POSITIVE; 70 V
Name: S-Ethyl 4-methylthiobenzothioate
Class: Non-natural compound
Formula: C10H12OS2
Exact mass: 212.032957
SMILES: CCSC(=O)C1=CC=C(C=C1)SC
InChI: InChI=1S/C10H12OS2/c1-3-13-10(11)8-4-6-9(12-2)7-5-8/h4-7H,3H2,1-2H3
Instrument: JMS-T100GCV (JEOL, Akishima, Japan) coupled to Agilent 7890A (Santa Clara, CA, USA) gas chromatograph.
Instrument type: GC-EI-TOF
Ms type: MS
Ion mode: POSITIVE
Ionization: EI
Column name: ZB-1MS 7HM-G011-11 sn:313446 (Agilent, Wilmington, USA) with the length 30.0 m, I.D. 0.32 mm, and thickness 0.25 micrometer.
Retention time: 9.75 min
m/z	relative intensity
26.016	3
27.024	23
28.007	4
28.031	3
29.039	15
34.996	7
39.024	8
44.98	99
45.987	7
46.976	4
46.996	3
50.016	24
51.024	13
56.98	3
57.988	13
58.996	5
61.011	4
62.016	4
63.024	20
64.031	4
65.039	5
68.98	41
69.986	3
70.996	5
72.004	5
74.016	8
75.024	11
76.031	21
77.039	49
78.046	8
79.055	52
80.059	4
80.98	4
81.988	24
82.993	2
89.039	4
91.055	9
92.021	2
92.98	3
94.996	3
96.004	4
97.011	12
104.026	6
106.996	4
108.004	95
108.086	1
109.008	9
110	4
121.011	19
122.018	11
123.027	72
124.03	7
125.024	3
135.998	17
137.003	2
139.975	6
151.022	999
151.629	3
152.025	99
152.514	2
153.019	47
154.021	4
154.999	16
169.015	2
212.033	95
213.036	12
214.03	9
