Mass spectrum: S-Ethyl 4-(4'-chlorophenyl)benzothioate; GC-EI-TOF; MS; POSITIVE; 70 V
Name: S-Ethyl 4-(4'-chlorophenyl)benzothioate
Class: Non-natural compound
Formula: C15H13ClOS
Exact mass: 276.037564
SMILES: Clc1ccc(cc1)c1ccc(cc1)C(=O)SCC
InChI: InChI=1S/C15H13ClOS/c1-2-18-15(17)13-5-3-11(4-6-13)12-7-9-14(16)10-8-12/h3-10H,2H2,1H3
Instrument: JMS-T100GCV (JEOL, Akishima, Japan) coupled to Agilent 7890A (Santa Clara, CA, USA) gas chromatograph.
Instrument type: GC-EI-TOF
Ms type: MS
Ion mode: POSITIVE
Ionization: EI
Column name: ZB-1MS 7HM-G011-11 sn:313446 (Agilent, Wilmington, USA) with the length 30.0 m, I.D. 0.32 mm, and thickness 0.25 micrometer.
Retention time: 11.40 min
m/z	relative intensity
27.024	25
28.006	9
28.031	3
29.039	15
31.99	5
34.996	12
39.024	4
43.055	4
44.98	5
45.988	3
50.016	9
51.023	15
55.055	3
57.071	3
58.996	5
61.011	6
62.016	4
63.023	12
69.071	3
74.016	11
75.023	32
75.527	9
76.031	41
76.533	4
77.039	7
86.015	3
87.024	6
89.04	2
93.012	3
98.016	4
99.023	10
100.03	5
101.039	14
102.046	9
107.513	10
108.512	3
111	2
113.039	5
114.047	3
124.022	6
125.039	17
126.047	36
127.051	4
136.008	10
138.005	3
139.054	6
149.037	6
150.046	67
150.177	2
151.054	128
151.187	3
152.062	566
152.303	1
152.595	2
153.066	71
154.069	5
160.008	5
161.015	3
179.048	2
180.057	12
183.027	2
184.034	9
185.028	2
186.023	28
187.03	33
188.024	11
189.028	11
190.032	2
207.032	4
215.026	999
215.55	2
215.753	3
216.029	133
216.778	2
217.023	326
218.026	42
219.004	12
220.005	2
221	4
276.038	47
277.04	8
278.035	17
279.039	3
