Mass spectrum: Tebuthiuron; LC-ESI-QTOF; MS2; [M+H]+; CID; CE 50V
Name: Tebuthiuron
Class: Non-natural product
Formula: C9H16N4OS
Exact mass: 228.104482
SMILES: CC(C)(C)C1=NN=C(S1)N(C)C(=O)NC
InChI: InChI=1S/C9H16N4OS/c1-9(2,3)6-11-12-8(15-6)13(5)7(14)10-4/h1-5H3,(H,10,14)
Instrument: X500R QTOF (AB Sciex LLC, MA, USA) coupled to ExionLC AD (AB Sciex LLC, MA, USA).
Instrument type: LC-ESI-QTOF
Ms type: MS2
Ion mode: POSITIVE
Collision energy: 50 V
Fragmentation mode: CID
Ionization: ESI
Column name: TSKgel ODS-100S 5 um, 2.1 mm Ã— 250 mm, TOSOH
Retention time: 13.4 min
Precursor m/z: 229.111759
Precursor type: [M+H]+
m/z	relative intensity
41.0384	104
42.0336	60
43.0289	169
44.0493	40
57.0444	425
57.0694	66
58.9947	42
62.0056	422
74.0057	696
89.0167	225
116.0275	999
142.0432	571
156.0591	512
157.0668	312
172.0903	129
