Mass spectrum: 6-(4-{[2-(decanoylamino)ethyl]amino}-4-oxobutanamido)-N,N-dimethylhexan-1-amine N-oxide; ESI-QTOF; MS2; ESI; [M+H]+; CE 30 V
Name: 6-(4-{[2-(decanoylamino)ethyl]amino}-4-oxobutanamido)-N,N-dimethylhexan-1-amine N-oxide
Name: AAO 9-2-2-6
Class: Non-natural product
Formula: C24H48N4O4
Exact mass: 456.367540
SMILES: O=C(NCCNC(=O)CCCCCCCCC)CCC(=O)NCCCCCC[N+]([O-])(C)C
InChI: InChI=1S/C24H48N4O4/c1-4-5-6-7-8-9-12-15-22(29)26-19-20-27-24(31)17-16-23(30)25-18-13-10-11-14-21-28(2,3)32/h4-21H2,1-3H3,(H,25,30)(H,26,29)(H,27,31)
Instrument: X500R QTOF (AB Sciex LLC, MA, USA)
Instrument type: ESI-QTOF
Ms type: MS2
Ion mode: POSITIVE
Collision energy: 30 V
Fragmentation mode: CID
Ionization: ESI
Precursor m/z: 457.374817 
Precursor type: [M+H]+
m/z	relative intensity
98.09619	6
100.11179	6
143.08132	10
161.16465	12
182.11737	31
198.18499	58
215.21152	25
243.17018	18
297.21709	47
378.31133	22
396.32179	29
439.36402	24
457.37369	999
