Mass spectrum: Clonazepam; LC-ESI-QQ; MS2; ESI; NEGATIVE; CE 40 V; [M-H]-
Name: Clonazepam
Class: Non-natural product
Formula: C15H10ClN3O3
Exact mass: 315.04105
SMILES: C1C(=O)NC2=C(C=C(C=C2)[N+](=O)[O-])C(=N1)C3=CC=CC=C3Cl
InChI: InChI=1S/C15H10ClN3O3/c16-12-4-2-1-3-10(12)15-11-7-9(19(21)22)5-6-13(11)18-14(20)8-17-15/h1-7H,8H2,(H,18,20)
Instrument: LCMS-8040 coupled to Nexera XR (Shimadzu, Kyoto, Japan).
Instrument type: LC-ESI-QQ
Ms type: MS2
Ion mode: NEGATIVE
Collision energy: 40 V
Ionization: ESI
Column name: InertSustain C18 ID 2.1 microm, 2.1 x 100 mm (GL Science, Tokyo, Japan).
Retention time: 8.612 min
Precursor m/z: 314.03323
Precursor type: [M-H]-
m/z	relative intensity
26	16
35	999
42	230
45.6	33
46.3	41
90	33
102	33
140	167
146	26
165	64
190	63
192	122
202	26
204	205
205	83
219	642
221	16
225	33
230	32
231	218
232	285
233	25
235	16
247	408
248	214
249	16
251	64
256	66
261	33
278	51
286	16
313	43
