Mass spectrum: Benzofenap; LC-ESI-QTOF; MS2; [M+H]+; CID; CE 60V
Name: Benzofenap
Class: Non-natural product
Formula: C22H20Cl2N2O3
Exact mass: 430.085098
SMILES: CC1=CC=C(C=C1)C(=O)COC2=C(C(=NN2C)C)C(=O)C3=C(C(=C(C=C3)Cl)C)Cl
InChI: InChI=1S/C22H20Cl2N2O3/c1-12-5-7-15(8-6-12)18(27)11-29-22-19(14(3)25-26(22)4)21(28)16-9-10-17(23)13(2)20(16)24/h5-10H,11H2,1-4H3
Instrument: X500R QTOF (AB Sciex LLC, MA, USA) coupled to ExionLC AD (AB Sciex LLC, MA, USA).
Instrument type: LC-ESI-QTOF
Ms type: MS2
Ion mode: POSITIVE
Collision energy: 60 V
Fragmentation mode: CID
Ionization: ESI
Column name: TSKgel ODS-100S 5 um, 2.1 mm Ã— 250 mm, TOSOH
Retention time: 16.0 min
Precursor m/z: 431.092375
Precursor type: [M+H]+
m/z	relative intensity
71.0601	76
77.0384	263
79.0539	366
91.054	79
103.0539	294
105.0692	999
119.0491	101
139.0498	235
157.0604	75
158.976	73
186.9708	82
