Mass spectrum: Acibenzolar-S-methyl; LC-ESI-QTOF; MS; POSITIVE
Name: Acibenzolar-S-methyl
Class: Non-natural product
Formula: C8H6N2OS2
Exact mass: 209.992155
SMILES: CSC(=O)C1=C2C(=CC=C1)N=NS2
InChI: InChI=1S/C8H6N2OS2/c1-12-8(11)5-3-2-4-6-7(5)13-10-9-6/h2-4H,1H3
Instrument: X500R QTOF (AB Sciex LLC, MA, USA) coupled to ExionLC AD (AB Sciex LLC, MA, USA).
Instrument type: LC-ESI-QTOF
Ms type: MS
Ion mode: POSITIVE
Ionization: ESI
Column name: TSKgel ODS-100S 5 um, 2.1 mm Ã— 250 mm, TOSOH
Retention time: 15.3 min
m/z	relative intensity
210.9993	999
212.002	128
212.9954	111
