Mass spectrum: 4-Ethyl-N-(2-nitrophenyl)aniline; GC-EI-TOF; MS; POSITIVE; 70 V
Name: 4-Ethyl-N-(2-nitrophenyl)aniline
Class: Non-natural compound
Formula: C14H14N2O2
Exact mass: 242.105520
SMILES: [O-][N+](=O)c1ccccc1Nc1ccc(CC)cc1
InChI: InChI=1S/C14H14N2O2/c1-2-11-7-9-12(10-8-11)15-13-5-3-4-6-14(13)16(17)18/h3-10,15H,2H2,1H3
Instrument: JMS-T100GCV (JEOL, Akishima, Japan) coupled to Agilent 7890A (Santa Clara, CA, USA) gas chromatograph.
Instrument type: GC-EI-TOF
Ms type: MS
Ion mode: POSITIVE
Ionization: EI
Column name: DB-5MS 122-5532 USA360633H (Agilent, Wilmington, USA) with the length 30.0 m, I.D. 0.25 mm, and thickness 0.25 micrometer.
Retention time: 11.64 min
m/z	relative intensity
27.025	41
28.007	4
28.02	4
29.041	19
30	20
38.017	7
39.025	68
40.032	8
41.04	13
42.041	1
50.017	31
51.025	85
51.055	1
51.081	1
52.032	25
53.04	25
54.041	3
55.056	3
57.034	2
62.017	9
63.025	70
63.068	1
64.032	31
65.04	51
66.045	10
67.054	3
69.528	3
70.53	5
71.538	6
72.041	2
74.017	8
75.025	20
76.032	38
76.532	6
77.04	206
77.537	11
78.046	53
79.056	44
80.057	5
81.07	2
82.033	2
82.532	4
83.035	2
83.538	24
84.041	12
84.543	5
87.025	5
88.031	5
89.04	84
89.538	17
90.043	77
90.544	16
91.053	39
92.054	9
93.069	4
95.538	7
96.041	4
96.543	7
97.048	10
97.548	3
98.05	2
99.034	1
100.032	2
101.04	12
102.047	21
103.054	45
103.547	11
104.055	19
104.553	2
105.071	14
106.056	3
107.051	27
108.057	8
109.066	2
112.048	5
113.04	8
114.046	8
115.056	27
116.054	16
117.059	7
118.061	5
119.064	3
120.078	2
121.052	5
125.04	3
126.048	10
127.055	28
128.056	30
129.061	10
130.067	8
131.065	6
132.069	5
133.074	1
137.041	2
138.047	5
139.056	54
140.054	47
141.061	16
142.066	5
143.07	4
144.076	2
150.048	5
151.055	26
152.063	83
153.066	36
154.067	38
155.072	15
156.074	6
157.078	7
158.084	4
160.065	5
161.069	2
163.055	3
164.054	10
165.066	17
166.067	91
167.074	215
168.08	128
169.084	38
170.085	7
171.091	3
177.059	9
178.067	59
178.19	2
179.073	76
179.203	3
180.082	665
180.748	2
181.087	310
181.692	2
182.089	66
182.688	2
182.763	1
183.078	20
183.296	1
184.076	8
185.076	3
190.067	5
191.074	23
192.079	36
192.207	2
193.08	127
194.092	60
195.102	48
196.082	28
197.086	34
198.088	11
199.09	2
205.077	6
206.085	14
207.093	47
207.22	1
208.099	33
209.108	40
210.113	16
211.111	3
212.129	4
213.067	3
214.073	2
225.102	36
226.107	10
227.082	999
227.83	3
228.087	402
228.847	3
229.091	51
229.939	1
230.094	5
241.098	13
242.106	873
242.662	2
242.794	3
243.111	361
243.914	2
244.045	1
244.114	48
244.53	2
245.118	5
