Mass spectrum: Simeconazole; LC-ESI-QTOF; MS2; [M+H]+; CID; CE 20 V
Name: Simeconazole
Class: Non-natural product
Formula: C14H20FN3OSi
Exact mass: 293.135967
SMILES: C[Si](C)(C)CC(CN1C=NC=N1)(C2=CC=C(C=C2)F)O
InChI: InChI=1S/C14H20FN3OSi/c1-20(2,3)9-14(19,8-18-11-16-10-17-18)12-4-6-13(15)7-5-12/h4-7,10-11,19H,8-9H2,1-3H3
Instrument: X500R QTOF (AB Sciex LLC, MA, USA) coupled to ExionLC AD (AB Sciex LLC, MA, USA).
Instrument type: LC-ESI-QTOF
Ms type: MS2
Ion mode: POSITIVE
Collision energy: 20 V
Fragmentation mode: CID
Ionization: ESI
Column name: TSKgel ODS-100S 5 um, 2.1 mm Ã— 250 mm, TOSOH
Retention time: 15.1 min
Precursor m/z: 294.143244
Precursor type: [M+H]+
m/z	relative intensity
70.0397	314
73.0466	80
75.0257	24
91.0568	18
115.0542	48
129.0726	59
133.0448	22
135.0603	416
142.0793	54
209.0791	165
225.1104	48
276.1327	105
294.1426	999
