Mass spectrum: Haloxazolam; LC-ESI-QQ; MS2; ESI; POSITIVE; CID; CE 50 V; [M+H]+
Name: Haloxazolam
Class: Non-natural product
Formula: C17H14BrFN2O2
Exact mass: 376.022261
SMILES: C1COC2(N1CC(=O)NC3=C2C=C(C=C3)Br)C4=CC=CC=C4F
InChI: InChI=1S/C17H14BrFN2O2/c18-11-5-6-15-13(9-11)17(12-3-1-2-4-14(12)19)21(7-8-23-17)10-16(22)20-15/h1-6,9H,7-8,10H2,(H,20,22)
Instrument: LCMS-8040 coupled to Nexera XR (Shimadzu, Kyoto, Japan).
Instrument type: LC-ESI-QQ
Ms type: MS2
Ion mode: POSITIVE
Collision energy: 50 V
Fragmentation mode: CID
Ionization: ESI
Column name: InertSustain C18 ID 2.1 microm, 2.1 x 100 mm (GL Science, Tokyo, Japan).
Retention time: 9.644 min
Precursor m/z: 377.029538
Precursor type: [M+H]+
m/z	relative intensity
29.5	55
45.0	84
56.0	28
78.5	16
83.2	79
93.2	55
104.1	233
105.1	428
109.0	333
122.2	184
123.0	117
124.0	141
129.4	89
130.2	305
133.1	111
134.1	306
135.2	55
152.1	163
155.0	141
167.6	28
172.1	22
179.2	749
180.3	55
181.0	53
182.1	217
184.1	999
190.1	53
197.1	26
197.9	195
199.1	79
205.2	306
206.1	338
208.1	193
209.2	153
210.1	236
225.1	355
226.2	500
227.2	176
236.1	74
250.4	55
258.1	283
276.1	81
277.8	99
284.9	55
303.2	511
304.1	28
332.5	239
376.9	28
