Mass spectrum: ((((3R,8R,9S,10S,13R,14S,17R)-10,13-Dimethyl-17-((R)-6-methylheptan-2-yl)hexadecahydro-1H-cyclopenta[a]phenanthren-3-yl)thio)methyl)diphenylsilane; GC-EI-TOF; MS; POSITIVE; 70 V
Name: ((((3R,8R,9S,10S,13R,14S,17R)-10,13-Dimethyl-17-((R)-6-methylheptan-2-yl)hexadecahydro-1H-cyclopenta[a]phenanthren-3-yl)thio)methyl)diphenylsilane
Class: Non-natural compound
Formula: C40H60SSi
Exact mass: 600.418498
SMILES: C[C@]12CC[C@H]3[C@@H](CCC4C[C@H](SC[SiH](c5ccccc5)c5ccccc5)CC[C@]34C)[C@@H]1CC[C@@H]2[C@H](C)CCCC(C)C
InChI: InChI=1S/C40H60SSi/c1-29(2)13-12-14-30(3)36-21-22-37-35-20-19-31-27-32(23-25-39(31,4)38(35)24-26-40(36,37)5)41-28-42(33-15-8-6-9-16-33)34-17-10-7-11-18-34/h6-11,15-18,29-32,35-38,42H,12-14,19-28H2,1-5H3/t30-,31?,32-,35+,36-,37+,38+,39+,40-/m1/s1
Instrument: JMS-T100GCV (JEOL, Akishima, Japan) coupled to Agilent 7890A (Santa Clara, CA, USA) gas chromatograph.
Instrument type: GC-EI-TOF
Ms type: MS
Ion mode: POSITIVE
Ionization: EI
Column name: HP-5 19091J-413 USD364547H (Agilent, Wilmington, USA) with the length 30.0 m, I.D. 0.32 mm, and thickness 0.25 micrometer.
Retention time: 41.38 min
m/z	relative intensity
28.006	346
28.055	6
29.039	17
31.99	138
39.024	7
39.962	11
41.04	56
42.047	9
43.055	162
43.991	9
44.06	6
53.041	7
55.056	162
56.063	28
57.071	190
58.074	10
65.04	6
67.056	111
68.063	20
69.072	151
70.078	18
71.087	98
73.049	10
77.04	19
78.048	18
79.002	8
79.056	79
80.062	17
81.072	199
81.14	4
82.077	23
83.088	135
83.152	4
84.091	11
85.103	15
91.056	115
92.062	20
93.018	9
93.072	127
94.079	41
95.088	263
95.165	4
96.007	5
96.092	22
97.103	56
98.109	6
103.004	5
104.063	8
105.018	93
105.072	62
106.021	12
106.079	33
107.038	4
107.088	142
108.095	120
109.103	162
109.197	3
110.107	17
111.119	24
115.103	6
117.073	12
118.079	7
119.033	17
119.088	43
120.042	6
120.095	23
121.104	83
122.11	29
123.119	52
124.125	7
125.135	9
131.087	15
132.094	8
133.022	5
133.104	49
134.111	34
135.119	85
136.125	17
136.99	17
137.135	16
139.005	8
143.086	4
145.104	26
146.11	9
147.119	71
148.126	21
149.135	62
150.14	9
151.006	37
151.15	10
152.014	298
153.018	61
154.011	28
154.078	4
155.031	9
156.013	4
159.12	18
160.126	11
161.135	53
162.141	23
163.151	34
164.156	6
165.073	8
165.165	7
173.136	16
174.142	9
175.151	28
176.156	13
177.167	12
180.041	9
181.05	64
182.054	16
183.066	512
183.252	4
184.069	91
185.066	24
185.135	4
187.152	12
188.158	8
189.166	16
190.17	4
191.005	7
191.182	6
193	3
193.052	5
193.198	9
195.066	40
196.073	38
197.08	57
198.084	12
199.077	5
201.168	27
202.175	10
203.183	23
204.189	5
205.199	5
206.204	5
207.035	38
207.213	5
208.036	6
215.038	85
215.182	80
216.041	14
216.189	48
217.035	10
217.197	38
218.205	10
219.214	6
227.04	8
228.043	5
229.053	415
229.195	17
229.266	4
230.059	214
230.205	26
231.068	294
231.211	21
232.069	61
232.221	5
233.065	26
234.072	5
241.198	5
243.214	6
244.22	5
245.23	6
247.245	12
253.017	6
255.214	4
256.221	6
257.229	72
258.235	17
259.246	6
260.252	13
261.26	10
262.267	6
274.267	13
275.278	9
281.054	17
282.051	6
285.261	7
287.273	7
288.282	9
289.294	5
301.293	8
302.299	6
313.293	6
314.3	9
315.304	7
316.316	15
327.309	5
328.318	9
329.323	12
355.34	151
356.343	42
357.35	10
368.343	6
369.354	19
370.363	506
371.367	155
372.371	31
507.357	4
522.37	7
552.413	34
553.42	16
554.43	6
600.419	30
601.423	15
602.427	6
