Mass spectrum: Cloxazolam; LC-ESI-QQ; MS2; ESI; POSITIVE; CE 50 V; [M+H]+
Name: Cloxazolam
Class: Non-natural product
Formula: C17H14Cl2N2O2
Exact mass: 348.04323
SMILES: C1COC2(N1CC(=O)NC3=C2C=C(C=C3)Cl)C4=CC=CC=C4Cl
InChI: InChI=1S/C17H14Cl2N2O2/c18-11-5-6-15-13(9-11)17(12-3-1-2-4-14(12)19)21(7-8-23-17)10-16(22)20-15/h1-6,9H,7-8,10H2,(H,20,22)
Instrument: LCMS-8040 coupled to Nexera XR (Shimadzu, Kyoto, Japan).
Instrument type: LC-ESI-QQ
Ms type: MS2
Ion mode: POSITIVE
Collision energy: 50 V
Ionization: ESI
Column name: InertSustain C18 ID 2.1 microm, 2.1 x 100 mm (GL Science, Tokyo, Japan).
Retention time: 9.919 min
Precursor m/z: 349.05050
Precursor type: [M+H]+
m/z	relative intensity
28	17
30	18
45	65
56	61
75	18
77	96
90	18
98	36
99	36
100	66
102	32
103	53
104	76
105	159
111	84
113	104
114	18
123	172
125	98
129	49
130	21
132	18
133	18
137	27
138	58
140	999
142	18
150	181
151	18
152	21
158	58
163	69
164	29
165	154
166	113
177	18
178	42
179	76
180	55
190	43
191	18
192	22
193	85
204	38
206	475
207	68
213	41
214	181
215	55
224	52
224.7	55
225	17
226	18
227	32
228	242
235	18
237	18
240	63
241	418
242	105
251	14
252	45
253	63
254	18
260	18
275	87
276	36
305	72
