Mass spectrum: 6-(4-{[4-(tetradecanoylamino)butyl]amino}-4-oxobutanamido)-N,N-dimethylhexan-1-amine N-oxide; ESI-QTOF; MS2; ESI; [M+H]+; CE 60 V
Name: 6-(4-{[4-(tetradecanoylamino)butyl]amino}-4-oxobutanamido)-N,N-dimethylhexan-1-amine N-oxide
Name: AAO 13-4-2-6
Class: Non-natural product
Formula: C30H60N4O4
Exact mass: 540.461440
SMILES: [O-][N+](C)(C)CCCCCCNC(=O)CCC(=O)NCCCCNC(=O)CCCCCCCCCCCCC
InChI: InChI=1S/C30H60N4O4/c1-4-5-6-7-8-9-10-11-12-13-16-21-28(35)31-25-18-19-26-33-30(37)23-22-29(36)32-24-17-14-15-20-27-34(2,3)38/h4-27H2,1-3H3,(H,31,35)(H,32,36)(H,33,37)
Instrument: X500R QTOF (AB Sciex LLC, MA, USA)
Instrument type: ESI-QTOF
Ms type: MS2
Ion mode: POSITIVE
Collision energy: 60 V
Fragmentation mode: CID
Ionization: ESI
Precursor m/z: 541.468717 
Precursor type: [M+H]+
m/z	relative intensity
30.03357	16
43.05393	7
44.04919	5
55.05394	43
57.06954	26
58.06487	188
69.06955	8
70.06479	15
71.08523	25
72.04408	15
72.08049	102
81.06955	32
82.02841	8
83.08520	53
84.04407	23
84.08045	13
85.10082	28
95.08517	53
97.10079	15
98.09606	43
100.03900	278
100.11169	84
109.10078	34
111.11642	15
112.03894	38
112.11167	11
114.12731	35
123.11643	20
126.09091	15
126.12730	18
128.14296	31
137.13204	12
140.07014	11
153.10183	30
154.08587	104
154.12201	14
156.13777	12
171.11233	69
182.11714	212
211.20506	116
227.17491	17
228.23155	83
282.27831	999
299.30495	31
