Mass spectrum: Clomipramine; LC-ESI-QQ; MS2; ESI; POSITIVE; CID; CE 50 V; [M+H]+
Name: Clomipramine
Class: Non-natural product
Formula: C19H23ClN2
Exact mass: 314.154968
SMILES: CN(C)CCCN1C2=CC=CC=C2CCC3=C1C=C(C=C3)Cl
InChI: InChI=1S/C19H23ClN2/c1-21(2)12-5-13-22-18-7-4-3-6-15(18)8-9-16-10-11-17(20)14-19(16)22/h3-4,6-7,10-11,14H,5,8-9,12-13H2,1-2H3
Instrument: LCMS-8040 coupled to Nexera XR (Shimadzu, Kyoto, Japan).
Instrument type: LC-ESI-QQ
Ms type: MS2
Ion mode: POSITIVE
Collision energy: 50 V
Fragmentation mode: CID
Ionization: ESI
Column name: InertSustain C18 ID 2.1 microm, 2.1 x 100 mm (GL Science, Tokyo, Japan).
Retention time: 9.593 min
Precursor m/z: 315.162245
Precursor type: [M+H]+
m/z	relative intensity
30.3	15
42.3	13
43.3	13
56.3	13
58.3	999
71.4	16
86.3	118
165.1	13
192.1	31
206.0	12
220.1	11
227.1	64
