Mass spectrum: 2-(Dimethylsilyl)-1-methyl-1H-indole; GC-EI-TOF; MS; POSITIVE; 70 V
Name: 2-(Dimethylsilyl)-1-methyl-1H-indole
Class: Non-natural compound
Formula: C11H15NSi
Exact mass: 189.097372
SMILES: C[SiH](C)c1cc2ccccc2n1C
InChI: InChI=1S/C11H15NSi/c1-12-10-7-5-4-6-9(10)8-11(12)13(2)3/h4-8,13H,1-3H3
Instrument: JMS-T100GCV (JEOL, Akishima, Japan) coupled to Agilent 7890A (Santa Clara, CA, USA) gas chromatograph.
Instrument type: GC-EI-TOF
Ms type: MS
Ion mode: POSITIVE
Ionization: EI
Column name: HP-5 19091J-413 USD364547H (Agilent, Wilmington, USA) with the length 30.0 m, I.D. 0.32 mm, and thickness 0.25 micrometer.
Retention time: 8.72 min
m/z	relative intensity
27.024	15
27.978	25
28.006	21
28.986	31
29.669	8
31.001	21
31.989	14
39.024	28
39.343	9
41.994	15
43.001	221
44.009	35
45.017	43
50.017	16
51.024	25
52.035	6
52.985	53
53.038	7
53.98	12
54.981	8
55.001	15
55.997	11
57.017	9
58.027	63
59.032	75
60.031	9
62.016	13
63.024	39
64.025	11
65.993	12
67	15
69.017	11
70.02	7
74.023	11
75.022	20
76.031	15
76.984	13
77.04	48
78.042	12
79.001	9
83.032	8
84.029	12
87.037	17
88.028	9
89.04	52
90.046	15
90.994	9
91.055	22
93.02	13
94.045	13
94.549	24
95.047	9
101.042	15
102.048	30
103.002	12
103.055	40
104.052	8
105.017	40
106.018	11
115.056	42
116.054	18
117.015	33
117.06	11
118.018	15
119.032	24
120.029	10
121.044	8
128.05	26
129.016	14
129.059	14
130.017	18
130.067	195
131.074	185
132.031	30
132.078	28
133.042	18
134.043	25
142.009	7
143.02	26
143.077	14
144.026	29
144.081	67
144.181	7
145.047	46
146.044	50
147.06	16
148.058	36
156.027	39
157.028	10
158.044	32
159.049	15
160.057	11
162.074	9
170.043	16
172.058	22
173.068	19
174.074	999
175.077	155
175.179	8
176.074	42
176.18	8
180.222	7
186.07	8
188.089	87
189.097	590
189.302	6
190.1	96
191.096	29
