Mass spectrum: Diclomezine; LC-ESI-QTOF; MS2; [M+H]+; CID; CE 60V
Name: Diclomezine
Class: Non-natural product
Formula: C11H8Cl2N2O
Exact mass: 254.001368
SMILES: CC1=C(C=C(C=C1Cl)C2=NNC(=O)C=C2)Cl
InChI: InChI=1S/C11H8Cl2N2O/c1-6-8(12)4-7(5-9(6)13)10-2-3-11(16)15-14-10/h2-5H,1H3,(H,15,16)
Instrument: X500R QTOF (AB Sciex LLC, MA, USA) coupled to ExionLC AD (AB Sciex LLC, MA, USA).
Instrument type: LC-ESI-QTOF
Ms type: MS2
Ion mode: POSITIVE
Collision energy: 60 V
Fragmentation mode: CID
Ionization: ESI
Column name: AQ-C18HP 3 microm, 2.1 mm Ã— 150 mm (GL Science, Tokyo, Japan).
Retention time: 31.8 min
Precursor m/z: 255.008645
Precursor type: [M+H]+
m/z	relative intensity
52.0181	180
72.9838	271
80.0122	139
89.0383	723
98.999	289
106.0648	427
122.9996	999
127.0551	266
128.062	680
132.9604	171
141.0344	304
155.0607	172
158.9762	353
