Mass spectrum: Amlodipine; LC-ESI-QQ; MS2; ESI; NEGATIVE; CID; CE 50 V; [M-H]-
Name: Amlodipine
Class: Non-natural product
Formula: C20H25ClN2O5
Exact mass: 408.145193
SMILES: CCOC(=O)C1=C(NC(=C(C1C2=CC=CC=C2Cl)C(=O)OC)C)COCCN
InChI: InChI=1S/C20H25ClN2O5/c1-4-28-20(25)18-15(11-27-10-9-22)23-12(2)16(19(24)26-3)17(18)13-7-5-6-8-14(13)21/h5-8,17,23H,4,9-11,22H2,1-3H3
Instrument: LCMS-8040 coupled to Nexera XR (Shimadzu, Kyoto, Japan).
Instrument type: LC-ESI-QQ
Ms type: MS2
Ion mode: NEGATIVE
Collision energy: 50 V
Fragmentation mode: CID
Ionization: ESI
Column name: InertSustain C18 ID 2.1 microm, 2.1 x 100 mm (GL Science, Tokyo, Japan).
Retention time: 6.176 min
Precursor m/z: 407.137916
Precursor type: [M-H]-
m/z	relative intensity
35.1	999
43.3	17
59.6	17
88.8	17
90.2	34
105.1	34
110.1	34
110.8	68
118.6	34
119.9	99
122.1	79
130.3	46
133.1	68
135.9	34
147.2	34
160.0	48
161.0	66
165.2	65
178.1	34
191.8	43
194.0	17
214.8	17
222.0	17
226.4	17
228.0	34
235.1	17
236.2	34
237.3	17
240.2	17
249.4	34
301.2	17
