Mass spectrum: Clothianidin; LC-ESI-QTOF; MS2; [M+H]+; CID; CE 50V
Name: Clothianidin
Class: Non-natural product
Formula: C6H8ClN5O2S
Exact mass: 249.008723
SMILES: CNC(=N[N+](=O)[O-])NCC1=CN=C(S1)Cl
InChI: InChI=1S/C6H8ClN5O2S/c1-8-6(11-12(13)14)10-3-4-2-9-5(7)15-4/h2H,3H2,1H3,(H2,8,10,11)
Instrument: X500R QTOF (AB Sciex LLC, MA, USA) coupled to ExionLC AD (AB Sciex LLC, MA, USA).
Instrument type: LC-ESI-QTOF
Ms type: MS2
Ion mode: POSITIVE
Collision energy: 50 V
Fragmentation mode: CID
Ionization: ESI
Column name: TSKgel ODS-100S 5 um, 2.1 mm Ã— 250 mm, TOSOH
Retention time: 11.2 min
Precursor m/z: 250.016
Precursor type: [M+H]+
m/z	relative intensity
42.0336	44
43.0287	57
44.9792	236
54.0337	138
55.0411	41
57.0443	119
58.9948	40
69.0446	71
70.9948	317
78.9401	60
81.0447	52
83.0601	78
86.0058	518
87.9948	77
96.0557	360
98.0059	63
98.0707	40
99.0013	43
108.0555	58
110.071	728
111.0791	449
113.0168	949
119.9669	123
131.9669	999
132.9748	169
146.9782	77
153.0228	50
