Mass spectrum: Metosulam; LC-ESI-QTOF; MS2; [M-H]-; CID; CE 50V
Name: Metosulam
Class: Non-natural product
Formula: C14H13Cl2N5O4S
Exact mass: 417.00653
SMILES: CC1=C(C(=C(C=C1)Cl)NS(=O)(=O)C2=NN3C(=CC(=NC3=N2)OC)OC)Cl
InChI: InChI=1S/C14H13Cl2N5O4S/c1-7-4-5-8(15)12(11(7)16)20-26(22,23)14-18-13-17-9(24-2)6-10(25-3)21(13)19-14/h4-6,20H,1-3H3
Instrument: X500R QTOF (AB Sciex LLC, MA, USA) coupled to ExionLC AD (AB Sciex LLC, MA, USA).
Instrument type: LC-ESI-QTOF
Ms type: MS2
Ion mode: NEGATIVE
Collision energy: 50 V
Fragmentation mode: CID
Ionization: ESI
Column name: AQ-C18HP 3 microm, 2.1 mm Ã— 150 mm (GL Science, Tokyo, Japan).
Retention time: 30.6 min
Precursor m/z: 415.999253
Precursor type: [M-H]-
m/z	relative intensity
41.0146	117
65.9988	92
66.0098	152
78.0224	68
107.0124	89
111.0677	274
120.0444	51
122.0127	78
123.0199	67
135.0315	68
136.0393	64
163.0263	99
164.0343	999
179.0577	572
