Mass spectrum: Rilmazafone; LC-ESI-QQ; MS2; ESI; POSITIVE; CID; CE 50 V; [M+H]+
Name: Rilmazafone
Class: Non-natural product
Formula: C21H20Cl2N6O3
Exact mass: 474.097371
SMILES: CN(C)C(=O)C1=NN(C(=N1)CNC(=O)CN)C2=C(C=C(C=C2)Cl)C(=O)C3=CC=CC=C3Cl
InChI: InChI=1S/C21H20Cl2N6O3/c1-28(2)21(32)20-26-17(11-25-18(30)10-24)29(27-20)16-8-7-12(22)9-14(16)19(31)13-5-3-4-6-15(13)23/h3-9H,10-11,24H2,1-2H3,(H,25,30)
Instrument: LCMS-8040 coupled to Nexera XR (Shimadzu, Kyoto, Japan).
Instrument type: LC-ESI-QQ
Ms type: MS2
Ion mode: POSITIVE
Ionization: ESI
Collision energy: 50 V
Fragmentation mode: CID
Column name: InertSustain C18 ID 2.1 microm, 2.1 x 100 mm (GL Science, Tokyo, Japan).
Retention time: 8.244 min
Precursor m/z: 475.104648
Precursor type: [M+H]+
m/z	relative intensity
72.3	157
90.1	16
111.4	42
114.3	31
118.4	31
124.3	100
125.2	405
137.9	31
139.1	250
154.2	63
163.2	16
166.0	65
186.1	43
190.0	16
200.2	31
212.2	16
213.3	31
214.1	63
228.2	13
229.2	30
240.2	31
254.1	94
254.9	31
256.1	31
264.4	31
265.3	25
273.2	31
280.2	16
308.2	209
344.1	999
355.8	79
357.9	16
365.0	63
372.3	31
388.9	122
417.9	37
