Mass spectrum: 2-(Dimethyl(phenyl)silyl)-1-methyl-1H-indole; GC-EI-TOF; MS; POSITIVE; 70 V
Name: 2-(Dimethyl(phenyl)silyl)-1-methyl-1H-indole
Class: Non-natural compound
Formula: C17H19NSi
Exact mass: 265.128672
SMILES: CN1C2=CC=CC=C2C=C1[Si](C)(C)C3=CC=CC=C3
InChI: InChI=1S/C17H19NSi/c1-18-16-12-8-7-9-14(16)13-17(18)19(2,3)15-10-5-4-6-11-15/h4-13H,1-3H3
Instrument: JMS-T100GCV (JEOL, Akishima, Japan) coupled to Agilent 7890A (Santa Clara, CA, USA) gas chromatograph.
Instrument type: GC-EI-TOF
Ms type: MS
Ion mode: POSITIVE
Ionization: EI
Column name: HP-5 19091J-413 USD364547H (Agilent, Wilmington, USA) with the length 30.0 m, I.D. 0.32 mm, and thickness 0.25 micrometer.
Retention time: 10.91 min
m/z	relative intensity
27.023	13
27.978	9
28.007	20
28.986	25
31.003	7
31.179	6
31.99	15
39.024	33
42.034	9
43.001	177
44.006	14
45.017	16
50.016	23
51.025	62
52.03	13
52.985	53
53.984	12
55	11
57.017	7
58.026	72
59.032	49
60.032	8
63.025	30
65.041	25
65.991	11
66.041	7
67.003	15
69.017	14
74.018	7
75.023	15
76.032	18
76.984	15
77.04	68
78.002	6
78.049	52
79.001	23
81.017	11
83.032	13
89.041	53
90.044	13
90.997	8
91.056	112
92.061	11
93.016	36
94.019	8
95.035	11
101.038	13
102.048	26
103	21
103.055	26
104.011	8
104.06	8
105.018	137
106.018	21
107.032	28
110.029	15
110.535	11
114.039	7
115.055	42
116.058	15
116.533	15
117.036	65
117.54	30
118.034	12
118.542	6
119.032	63
120.035	18
121.048	81
122.051	10
123.541	16
124.045	67
124.179	6
124.549	47
125.052	56
125.556	15
128.054	22
129.017	19
129.063	15
130.019	20
130.067	63
131.032	28
131.073	30
132.03	24
132.565	22
133.047	29
134.048	26
135.065	43
143.027	26
143.07	19
144.029	20
144.082	62
145.048	28
146.045	27
147.051	11
148.059	6
156.029	37
157.041	8
158.042	22
159.056	11
160.056	9
161.085	6
165.072	38
166.074	11
167.025	10
169.042	7
170.044	30
171.034	8
172.06	31
173.065	14
174.071	9
177.06	7
178.079	28
178.301	8
179.096	13
181.05	10
186.069	14
187.08	16
188.09	50
189.088	10
190.074	10
191.035	10
191.079	12
192.08	11
193.05	14
194.045	9
195.062	11
203.082	9
204.081	44
205.083	12
206.096	41
207.104	65
208.105	15
208.174	6
209.086	7
218.108	8
219.053	37
220.059	36
221.072	13
222.079	10
230.034	5
232.06	30
233.067	30
234.074	66
235.078	25
246.07	10
247.085	11
248.09	454
248.365	23
249.094	127
249.385	6
250.105	713
251.108	157
252.106	37
253.11	6
264.122	59
265.129	999
266.132	224
266.256	8
267.13	62
268.131	11
