Mass spectrum: Prosulfuron; LC-ESI-QTOF; MS2; [M-H]-; CID; CE 60V
Name: Prosulfuron
Class: Non-natural product
Formula: C15H16F3N5O4S
Exact mass: 419.08751
SMILES: CC1=NC(=NC(=N1)OC)NC(=O)NS(=O)(=O)C2=CC=CC=C2CCC(F)(F)F
InChI: InChI=1S/C15H16F3N5O4S/c1-9-19-12(22-14(20-9)27-2)21-13(24)23-28(25,26)11-6-4-3-5-10(11)7-8-15(16,17)18/h3-6H,7-8H2,1-2H3,(H2,19,20,21,22,23,24)
Instrument: X500R QTOF (AB Sciex LLC, MA, USA) coupled to ExionLC AD (AB Sciex LLC, MA, USA).
Instrument type: LC-ESI-QTOF
Ms type: MS2
Ion mode: NEGATIVE
Collision energy: 60 V
Fragmentation mode: CID
Ionization: ESI
Column name: AQ-C18HP 3 microm, 2.1 mm Ã— 150 mm (GL Science, Tokyo, Japan).
Retention time: 32.6 min
Precursor m/z: 418.080233
Precursor type: [M-H]-
m/z	relative intensity
41.0144	76
41.9986	52
55.03	33
65.0144	18
66.0098	33
82.041	81
107.0363	273
109.052	42
124.0392	50
139.0626	999
