Mass spectrum: N1-(3-Ethylphenyl)benzene-1,2-diamine; GC-EI-TOF; MS; POSITIVE; 70 V
Name: N1-(3-Ethylphenyl)benzene-1,2-diamine
Class: Non-natural compound
Formula: C14H16N2
Exact mass: 212.131349
SMILES: CCc1cc(ccc1)Nc1ccccc1N
InChI: InChI=1S/C14H16N2/c1-2-11-6-5-7-12(10-11)16-14-9-4-3-8-13(14)15/h3-10,16H,2,15H2,1H3
Instrument: JMS-T100GCV (JEOL, Akishima, Japan) coupled to Agilent 7890A (Santa Clara, CA, USA) gas chromatograph.
Instrument type: GC-EI-TOF
Ms type: MS
Ion mode: POSITIVE
Ionization: EI
Column name: DB-5MS 122-5532 USA360633H (Agilent, Wilmington, USA) with the length 30.0 m, I.D. 0.25 mm, and thickness 0.25 micrometer.
Retention time: 11.03 min
m/z	relative intensity
27.025	26
28.02	17
29.041	26
30.036	3
38.017	4
39.025	61
40.032	5
41.04	10
42.036	6
50.017	11
51.025	46
52.032	30
53.04	52
54.037	14
55.048	1
62.017	4
63.025	32
64.032	17
65.04	117
66.044	19
67.046	4
71.537	3
75.025	7
76.032	13
77.04	109
77.537	3
78.044	38
79.055	54
80.052	152
81.057	18
83.538	9
84.038	4
84.54	6
85.043	4
89.04	32
89.538	5
90.043	19
90.541	2
91.047	95
91.545	9
92.052	44
93.059	21
94.071	4
96.541	3
97.043	11
97.547	46
98.051	46
98.554	13
101.04	4
102.046	10
103.055	20
104.054	12
105.048	14
106.065	17
107.062	60
108.069	14
114.046	2
115.056	12
116.053	7
117.059	16
118.057	26
119.063	38
120.08	6
121.09	6
126.048	3
127.055	12
128.059	13
129.063	8
130.067	24
131.064	19
132.07	52
133.074	6
139.056	8
140.052	9
141.064	5
142.065	4
143.069	8
144.075	4
145.079	16
146.084	3
151.055	5
152.062	14
153.064	8
154.067	29
155.069	15
156.073	21
157.078	14
158.085	12
159.092	3
164.053	3
165.066	4
166.066	45
167.074	47
168.078	34
169.078	38
170.086	8
171.093	10
172.098	2
177.06	2
178.066	9
179.072	14
180.082	62
180.187	1
181.078	152
182.085	329
182.699	1
183.092	375
183.709	2
184.097	58
184.722	1
185.107	8
185.221	1
191.074	3
192.079	5
193.082	12
194.092	28
195.093	73
196.1	30
197.108	513
197.757	2
198.111	76
198.795	1
199.115	5
199.272	3
206.085	2
207.092	4
208.099	3
209.108	9
210.115	10
211.124	113
212.131	999
212.804	3
213.135	159
213.869	2
214.138	12
214.419	2
214.97	1
