Mass spectrum: Acetaminophen; LC-ESI-QQ; MS2; ESI; POSITIVE; CID; CE 40 V; [M+H]+
Name: Acetaminophen
Class: Non-natural product
Formula: C8H9NO2
Exact mass: 151.063325
SMILES: CC(=O)NC1=CC=C(C=C1)O
InChI: InChI=1S/C8H9NO2/c1-6(10)9-7-2-4-8(11)5-3-7/h2-5,11H,1H3,(H,9,10)
Instrument: LCMS-8040 coupled to Nexera XR (Shimadzu, Kyoto, Japan).
Instrument type: LC-ESI-QQ
Ms type: MS2
Ion mode: POSITIVE
Collision energy: 40 V
Fragmentation mode: CID
Ionization: ESI
Column name: InertSustain C18 ID 2.1 microm, 2.1 x 100 mm (GL Science, Tokyo, Japan).
Retention time: 4.203 min
Precursor m/z: 152.070602
Precursor type: [M+H]+
m/z	relative intensity
15.4	15
37.2	10
38.0	13
39.2	333
41.4	18
43.2	438
55.2	23
65.2	999
66.2	16
67.3	59
80.2	83
81.2	41
82.3	24
83.3	15
91.2	15
92.3	77
93.2	258
109.2	92
110.1	131
152.3	17
