Mass spectrum: S-Ethyl 2-methoxybenzothioate; GC-EI-TOF; MS; POSITIVE; 70 V
Name: S-Ethyl 2-methoxybenzothioate
Class: Non-natural compound
Formula: C10H12O2S
Exact mass: 196.055801
SMILES: COc1ccccc1C(=O)SCC
InChI: InChI=1S/C10H12O2S/c1-3-13-10(11)8-6-4-5-7-9(8)12-2/h4-7H,3H2,1-2H3
Instrument: JMS-T100GCV (JEOL, Akishima, Japan) coupled to Agilent 7890A (Santa Clara, CA, USA) gas chromatograph.
Instrument type: GC-EI-TOF
Ms type: MS
Ion mode: POSITIVE
Ionization: EI
Column name: HP-5MS 30x0.25 0.25microm 19091S-4 (Agilent, Wilmington, USA) with the length 30.0 m, I.D. 0.25 mm, and thickness 0.25 micrometer.
Retention time: 8.89 min
m/z	relative intensity
26.016	24
27.024	107
28.006	15
28.032	18
29.04	54
34.997	31
37.009	6
38.016	17
39.024	21
44.981	31
45.99	22
46.996	7
50.016	42
51.024	60
52.032	7
53.003	12
53.045	5
57.989	17
58.997	25
60.004	7
61.013	20
62.017	18
63.024	83
64.032	71
65.039	18
68.983	9
74.017	15
75.026	14
76.032	28
77.04	279
78.044	25
79.056	28
92.027	151
92.111	5
93.031	13
105.034	15
109.013	7
111.03	7
112.615	5
120.022	22
135.045	999
135.288	5
135.577	4
136.048	84
137.05	7
157.453	4
196.056	25
