Mass spectrum: Amlodipine; LC-ESI-QQ; MS2; ESI; NEGATIVE; CID; CE 40 V; [M-H]-
Name: Amlodipine
Class: Non-natural product
Formula: C20H25ClN2O5
Exact mass: 408.145193
SMILES: CCOC(=O)C1=C(NC(=C(C1C2=CC=CC=C2Cl)C(=O)OC)C)COCCN
InChI: InChI=1S/C20H25ClN2O5/c1-4-28-20(25)18-15(11-27-10-9-22)23-12(2)16(19(24)26-3)17(18)13-7-5-6-8-14(13)21/h5-8,17,23H,4,9-11,22H2,1-3H3
Instrument: LCMS-8040 coupled to Nexera XR (Shimadzu, Kyoto, Japan).
Instrument type: LC-ESI-QQ
Ms type: MS2
Ion mode: NEGATIVE
Collision energy: 40 V
Fragmentation mode: CID
Ionization: ESI
Column name: InertSustain C18 ID 2.1 microm, 2.1 x 100 mm (GL Science, Tokyo, Japan).
Retention time: 6.176 min
Precursor m/z: 407.137916
Precursor type: [M-H]-
m/z	relative intensity
35.1	999
78.2	45
102.6	23
117.1	91
118.1	189
119.0	127
120.0	68
131.2	61
132.0	87
132.8	81
134.1	87
144.2	45
148.9	68
160.1	23
162.0	71
163.2	111
163.9	62
165.0	61
178.2	181
180.9	45
192.1	173
194.2	45
207.0	138
208.0	53
215.2	45
219.6	41
221.7	83
225.7	23
226.8	41
228.1	23
235.0	66
236.0	68
237.0	114
242.0	44
243.0	45
250.9	45
257.1	45
265.1	23
265.8	45
295.1	128
300.0	87
