Mass spectrum: 3-Allyl-2-naphthonitrile; GC-EI-TOF; MS; POSITIVE; 70 V
Name: 3-Allyl-2-naphthonitrile
Class: Non-natural compound
Formula: C14H11N
Exact mass: 193.08915
SMILES: N#Cc1cc2ccccc2cc1CC=C
InChI: InChI=1S/C14H11N/c1-2-5-11-8-12-6-3-4-7-13(12)9-14(11)10-15/h2-4,6-9H,1,5H2
Instrument: JMS-T100GCV (JEOL, Akishima, Japan) coupled to Agilent 7890A (Santa Clara, CA, USA) gas chromatograph.
Instrument type: GC-EI-TOF
Ms type: MS
Ion mode: POSITIVE
Ionization: EI
Column name: HP-5 19091J-413 USD364547H (Agilent, Wilmington, USA) with the length 30.0 m, I.D. 0.32 mm, and thickness 0.25 micrometer.
Retention time: 9.56 min
m/z	relative intensity
26.016	3
27.024	17
28.007	7
28.02	4
31.99	4
38.016	5
39.024	47
40.03	2
41.04	8
50.016	20
51.024	28
52.031	6
61.009	4
62.016	21
63.024	55
64.027	6
65.04	9
69.024	6
69.528	19
70.031	4
70.53	11
74.017	25
75.024	34
75.528	4
76.031	18
77.039	14
78.045	2
81.024	11
81.528	23
82.032	43
82.535	54
83.039	19
83.538	16
86.017	15
87.024	27
88.028	14
89.039	28
90.04	3
91.056	3
95.538	35
96.04	8
96.545	10
98.017	10
99.022	12
100.026	9
101.038	7
102.046	8
110.016	4
111.023	7
112.025	6
113.04	39
114.041	15
115.055	40
116.056	6
123.018	2
124.029	4
125.039	14
126.047	37
127.052	17
128.062	10
137.04	22
138.046	25
139.055	133
139.137	2
140.052	159
141.059	20
142.073	2
149.039	4
150.047	22
151.053	41
152.061	54
153.062	40
154.066	8
161.04	4
162.047	10
163.055	53
164.055	88
164.186	2
165.071	426
165.64	1
166.072	234
166.629	1
167.076	52
168.079	5
175.044	4
176.053	11
177.058	61
178.066	143
179.069	20
188.05	12
189.057	11
190.066	108
190.183	2
191.073	86
191.204	3
192.081	323
192.212	11
192.685	1
192.775	2
193.089	999
193.776	3
194.093	150
194.761	2
195.096	11
195.274	1
