Mass spectrum: Azoxystrobin; LC-ESI-QTOF; MS2; [M+H]+; CID; CE 50V
Name: Azoxystrobin
Class: Non-natural product
Formula: C22H17N3O5
Exact mass: 403.116821
SMILES: CO/C=C(\C1=CC=CC=C1OC2=NC=NC(=C2)OC3=CC=CC=C3C#N)/C(=O)OC
InChI: InChI=1S/C22H17N3O5/c1-27-13-17(22(26)28-2)16-8-4-6-10-19(16)30-21-11-20(24-14-25-21)29-18-9-5-3-7-15(18)12-23/h3-11,13-14H,1-2H3/b17-13+
Instrument: X500R QTOF (AB Sciex LLC, MA, USA) coupled to ExionLC AD (AB Sciex LLC, MA, USA).
Instrument type: LC-ESI-QTOF
Ms type: MS2
Ion mode: POSITIVE
Collision energy: 50 V
Fragmentation mode: CID
Ionization: ESI
Column name: TSKgel ODS-100S 5 um, 2.1 mm Ã— 250 mm, TOSOH
Retention time: 14.1 min
Precursor m/z: 404.124098
Precursor type: [M+H]+
m/z	relative intensity
89.0385	35
116.0494	40
120.0442	63
129.0442	141
130.0396	118
133.0519	127
134.0598	214
141.0448	68
143.0599	122
145.0514	136
155.0601	52
156.0441	425
169.0397	105
171.0547	146
172.039	515
173.0465	64
183.0549	572
199.0502	222
200.0343	313
201.0422	262
210.0426	281
211.0502	93
216.0656	106
272.0817	328
273.0831	393
300.0768	367
301.0844	545
328.0713	762
329.0788	999
330.0825	101
344.1029	288
