Mass spectrum: Mepanipyrim; LC-ESI-QTOF; MS2; [M+H]+; CID; CE 40V
Name: Mepanipyrim
Class: Non-natural product
Formula: C14H13N3
Exact mass: 223.110947
SMILES: CC#CC1=NC(=NC(=C1)C)NC2=CC=CC=C2
InChI: InChI=1S/C14H13N3/c1-3-7-13-10-11(2)15-14(17-13)16-12-8-5-4-6-9-12/h4-6,8-10H,1-2H3,(H,15,16,17)
Instrument: X500R QTOF (AB Sciex LLC, MA, USA) coupled to ExionLC AD (AB Sciex LLC, MA, USA).
Instrument type: LC-ESI-QTOF
Ms type: MS2
Ion mode: POSITIVE
Collision energy: 40 V
Fragmentation mode: CID
Ionization: ESI
Column name: TSKgel ODS-100S 5 um, 2.1 mm Ã— 250 mm, TOSOH
Retention time: 15.1 min
Precursor m/z: 224.118224
Precursor type: [M+H]+
m/z	relative intensity
42.0337	37
77.0385	173
79.0541	137
90.0338	61
94.065	113
104.0495	245
106.0647	543
119.0604	125
121.0759	244
131.0602	332
132.0681	83
142.0652	226
143.0607	176
168.0684	136
180.0807	156
182.0841	216
183.0914	275
184.0876	171
192.0683	128
205.076	104
206.0838	307
207.0915	394
208.0889	230
209.0946	494
222.1029	166
223.1106	133
224.1177	999
