Mass spectrum: Carvedilol; LC-ESI-QQ; MS2; ESI; POSITIVE; CID; CE 40 V; [M+H]+
Name: Carvedilol
Class: Non-natural product
Formula: C24H26N2O4
Exact mass: 406.18925
SMILES: COC1=CC=CC=C1OCCNCC(COC2=CC=CC3=C2C4=CC=CC=C4N3)O
InChI: InChI=1S/C24H26N2O4/c1-28-21-10-4-5-11-22(21)29-14-13-25-15-17(27)16-30-23-12-6-9-20-24(23)18-7-2-3-8-19(18)26-20/h2-12,17,25-27H,13-16H2,1H3
Instrument: LCMS-8040 coupled to Nexera XR (Shimadzu, Kyoto, Japan).
Instrument type: LC-ESI-QQ
Ms type: MS2
Ion mode: POSITIVE
Collision energy: 40 V
Fragmentation mode: CID
Ionization: ESI
Column name: InertSustain C18 ID 2.1 microm, 2.1 x 100 mm (GL Science, Tokyo, Japan).
Retention time: 8.274 min
Precursor m/z: 407.196527
Precursor type: [M+H]+
m/z	relative intensity
41.4	23
42.3	60
43.3	14
44.3	81
45.4	15
56.3	713
57.3	26
58.3	41
68.2	20
70.4	17
72.3	12
73.4	16
77.3	57
80.3	22
82.3	100
83.2	32
84.2	81
86.1	69
88.5	11
91.2	28
93.2	30
95.2	42
100.2	999
119.1	26
121.3	49
123.2	95
124.4	17
130.1	14
133.3	15
136.3	40
137.1	17
151.3	57
154.0	15
156.1	22
160.1	14
161.9	13
166.2	41
167.1	48
168.2	73
177.3	13
180.1	28
183.2	89
184.0	78
192.1	39
194.1	267
196.2	60
208.0	26
209.2	13
210.2	50
219.2	10
222.1	186
224.2	43
238.2	14
