Mass spectrum: Methyl 2-(3-(4,4,5,5-tetramethyl-1,3,2-dioxaborolan-2-yl)phenyl)propanoate; GC-EI-TOF; MS; POSITIVE; 70 V
Name: Methyl 2-(3-(4,4,5,5-tetramethyl-1,3,2-dioxaborolan-2-yl)phenyl)propanoate
Class: Non-natural compound
Formula: C16H23BO4
Exact mass: 290.168941
SMILES: B1(OC(C(O1)(C)C)(C)C)C2=CC(=CC=C2)C(C)C(=O)OC
InChI: InChI=1S/C16H23BO4/c1-11(14(18)19-6)12-8-7-9-13(10-12)17-20-15(2,3)16(4,5)21-17/h7-11H,1-6H3
Instrument: JMS-T100GCV (JEOL, Akishima, Japan) coupled to Agilent 7890A (Santa Clara, CA, USA) gas chromatograph.
Instrument type: GC-EI-TOF
Ms type: MS
Ion mode: POSITIVE
Ionization: EI
Column name: DB-5MS 122-5532 USA360633H (Agilent, Wilmington, USA) with the length 30.0 m, I.D. 0.25 mm, and thickness 0.25 micrometer.
Retention time: 10.48 min
m/z	relative intensity
27.025	41
28.008	16
28.03	4
29.022	6
29.041	44
31.02	26
31.992	10
39.025	60
40.033	23
41.041	287
42.048	106
43.02	257
43.056	54
44.022	9
45.016	21
51.025	14
52.031	8
53.022	14
53.041	16
55.02	9
55.057	111
56.062	7
57.036	6
57.072	78
58.043	51
58.074	5
59.015	147
59.051	131
60.055	4
63.026	7
65.041	12
66.044	4
67.057	16
69.072	39
70.044	5
71.052	12
76.03	6
77.041	93
78.048	30
79.056	27
83.088	153
84.093	18
85.067	103
86.074	19
87.044	13
88.054	24
89.043	5
90.044	3
91.056	20
94.052	5
99.082	10
100.051	6
101.043	10
101.098	51
102.047	17
102.102	4
103.056	133
103.127	4
104.056	103
104.124	3
105.054	308
106.06	20
107.063	4
107.569	14
108.068	50
108.569	8
113.057	6
115.056	17
116.057	12
117.067	31
118.077	13
119.079	9
127.057	5
128.059	16
129.059	44
130.07	226
131.069	814
131.586	3
132.074	186
133.073	23
134.074	4
142.077	4
143.086	15
144.044	4
144.093	26
145.1	77
146.101	48
147.065	12
149.08	6
150.086	5
156.084	4
157.091	11
158.061	6
159.064	12
159.117	8
160.081	17
161.079	53
162.103	14
171.109	11
172.11	18
173.114	29
174.097	6
175.063	5
176.065	7
186.097	9
187.096	37
188.102	35
189.107	16
190.091	62
191.089	216
192.093	26
193.095	4
198.088	7
199.095	5
200.108	5
201.113	16
202.118	26
203.127	16
204.121	51
205.124	39
206.125	5
214.092	39
215.089	163
215.234	3
216.095	37
217.1	7
218.119	4
219.122	13
220.124	9
228.108	73
228.241	4
229.107	403
230.112	521
230.877	3
231.156	999
231.91	5
232.159	149
232.52	3
233.161	15
246.119	6
247.115	23
248.113	4
261.134	5
274.149	46
275.146	200
276.149	31
277.152	5
289.172	73
290.169	303
290.425	3
291.172	51
292.175	7
