Mass spectrum: Azoxystrobin; LC-ESI-QTOF; MS2; [M+H]+; CID; CE 30V
Name: Azoxystrobin
Class: Non-natural product
Formula: C22H17N3O5
Exact mass: 403.116821
SMILES: CO/C=C(\C1=CC=CC=C1OC2=NC=NC(=C2)OC3=CC=CC=C3C#N)/C(=O)OC
InChI: InChI=1S/C22H17N3O5/c1-27-13-17(22(26)28-2)16-8-4-6-10-19(16)30-21-11-20(24-14-25-21)29-18-9-5-3-7-15(18)12-23/h3-11,13-14H,1-2H3/b17-13+
Instrument: X500R QTOF (AB Sciex LLC, MA, USA) coupled to ExionLC AD (AB Sciex LLC, MA, USA).
Instrument type: LC-ESI-QTOF
Ms type: MS2
Ion mode: POSITIVE
Collision energy: 30 V
Fragmentation mode: CID
Ionization: ESI
Column name: TSKgel ODS-100S 5 um, 2.1 mm Ã— 250 mm, TOSOH
Retention time: 14.1 min
Precursor m/z: 404.124098
Precursor type: [M+H]+
m/z	relative intensity
134.0601	68
172.0394	109
201.0654	98
210.0654	76
216.0658	132
287.082	95
301.0873	172
303.077	110
316.1079	463
329.0791	926
344.1026	999
345.1058	213
372.098	950
373.1013	289
