Mass spectrum: Cinosulfuron; LC-ESI-QTOF; MS2; [M+H]+; CID; CE 40V
Name: Cinosulfuron
Class: Non-natural product
Formula: C15H19N5O7S
Exact mass: 413.100519
SMILES: COCCOC1=CC=CC=C1S(=O)(=O)NC(=O)NC2=NC(=NC(=N2)OC)OC
InChI: InChI=1S/C15H19N5O7S/c1-24-8-9-27-10-6-4-5-7-11(10)28(22,23)20-13(21)16-12-17-14(25-2)19-15(18-12)26-3/h4-7H,8-9H2,1-3H3,(H2,16,17,18,19,20,21)
Instrument: X500R QTOF (AB Sciex LLC, MA, USA) coupled to ExionLC AD (AB Sciex LLC, MA, USA).
Instrument type: LC-ESI-QTOF
Ms type: MS2
Ion mode: POSITIVE
Collision energy: 40 V
Fragmentation mode: CID
Ionization: ESI
Column name: AQ-C18HP 3 microm, 2.1 mm Ã— 150 mm (GL Science, Tokyo, Japan).
Retention time: 28.9 min
Precursor m/z: 414.107796
Precursor type: [M+H]+
m/z	relative intensity
45.0334	26
57.0443	49
59.0491	55
69.0083	24
83.024	328
91.0542	62
97.0102	98
101.0345	28
113.0055	122
121.0281	240
125.0052	248
137.0053	160
141.0003	270
157.0718	472
183.0109	645
183.051	999
