Mass spectrum: Amoxapine; LC-ESI-QQ; MS; ESI; POSITIVE
Name: Amoxapine
Class: Non-natural product
Formula: C17H16ClN3O
Exact mass: 313.098178
SMILES: C1CN(CCN1)C2=NC3=CC=CC=C3OC4=C2C=C(C=C4)Cl
InChI: InChI=1S/C17H16ClN3O/c18-12-5-6-15-13(11-12)17(21-9-7-19-8-10-21)20-14-3-1-2-4-16(14)22-15/h1-6,11,19H,7-10H2
Instrument: LCMS-8040 coupled to Nexera XR (Shimadzu, Kyoto, Japan).
Instrument type: LC-ESI-QQ
Ms type: MS
Ion mode: POSITIVE
Ionization: ESI
Column name: InertSustain C18 ID 2.1 microm, 2.1 x 100 mm (GL Science, Tokyo, Japan).
Retention time: 8.762 min
m/z	relative intensity
214.1	36
231.2	16
314.2	999
315.2	188
316.2	349
317.2	38
