Mass spectrum: Spiperone; LC-ESI-QQ; MS2; ESI; NEGATIVE; CID; CE 30 V; [M-H]-
Name: Spiperone
Class: Non-natural product
Formula: C23H26FN3O2
Exact mass: 395.200893
SMILES: C1CN(CCC12C(=O)NCN2C3=CC=CC=C3)CCCC(=O)C4=CC=C(C=C4)F
InChI: InChI=1S/C23H26FN3O2/c24-19-10-8-18(9-11-19)21(28)7-4-14-26-15-12-23(13-16-26)22(29)25-17-27(23)20-5-2-1-3-6-20/h1-3,5-6,8-11H,4,7,12-17H2,(H,25,29)
Instrument: LCMS-8040 coupled to Nexera XR (Shimadzu, Kyoto, Japan).
Instrument type: LC-ESI-QQ
Ms type: MS2
Ion mode: NEGATIVE
Collision energy: 30 V
Fragmentation mode: CID
Ionization: ESI
Column name: InertSustain C18 ID 2.1 microm, 2.1 x 100 mm (GL Science, Tokyo, Japan).
Retention time: 8.173 min
Precursor m/z: 394.193616
Precursor type: [M-H]-
m/z	relative intensity
28.4	13
42.1	69
56.1	65
84.1	101
92.2	75
93.8	19
95.1	100
96.1	13
107.1	26
115.9	36
142.3	17
144.0	735
148.2	13
150.9	41
163.1	71
164.0	31
171.0	49
173.0	137
177.1	31
180.0	999
183.5	18
190.1	29
192.0	104
204.1	31
217.9	146
230.0	973
271.1	48
394.2	136
