Mass spectrum: Thiamylal; LC-ESI-QQ; MS; ESI; NEGATIVE
Name: Thiamylal
Class: Non-natural product
Formula: C12H18N2O2S
Exact mass: 254.108891
SMILES: CCCC(C)C1(C(=O)NC(=S)NC1=O)CC=C
InChI: InChI=1S/C12H18N2O2S/c1-4-6-8(3)12(7-5-2)9(15)13-11(17)14-10(12)16/h5,8H,2,4,6-7H2,1,3H3,(H2,13,14,15,16,17)
Instrument: LCMS-8040 coupled to Nexera XR (Shimadzu, Kyoto, Japan).
Instrument type: LC-ESI-QQ
Ms type: MS
Ion mode: NEGATIVE
Ionization: ESI
Column name: InertSustain C18 ID 2.1 microm, 2.1 x 100 mm (GL Science, Tokyo, Japan).
Retention time: 9.279 min
m/z	relative intensity
253.1	999
254.1	140
255.1	58
321.1	11
