Mass spectrum: Cinosulfuron; LC-ESI-QTOF; MS2; [M+H]+; CID; CE 60V
Name: Cinosulfuron
Class: Non-natural product
Formula: C15H19N5O7S
Exact mass: 413.100519
SMILES: COCCOC1=CC=CC=C1S(=O)(=O)NC(=O)NC2=NC(=NC(=N2)OC)OC
InChI: InChI=1S/C15H19N5O7S/c1-24-8-9-27-10-6-4-5-7-11(10)28(22,23)20-13(21)16-12-17-14(25-2)19-15(18-12)26-3/h4-7H,8-9H2,1-3H3,(H2,16,17,18,19,20,21)
Instrument: X500R QTOF (AB Sciex LLC, MA, USA) coupled to ExionLC AD (AB Sciex LLC, MA, USA).
Instrument type: LC-ESI-QTOF
Ms type: MS2
Ion mode: POSITIVE
Collision energy: 60 V
Fragmentation mode: CID
Ionization: ESI
Column name: AQ-C18HP 3 microm, 2.1 mm Ã— 150 mm (GL Science, Tokyo, Japan).
Retention time: 28.9 min
Precursor m/z: 414.107796
Precursor type: [M+H]+
m/z	relative intensity
43.029	69
45.0336	76
57.0445	223
58.0288	62
59.0492	94
65.0384	143
69.0083	153
72.0445	65
77.0389	93
83.024	999
91.0541	457
97.0107	531
101.0345	105
109.0104	86
113.0056	570
121.0286	423
125.0055	216
137.0054	273
141.0006	192
157.0721	186
183.0113	172
183.0512	262
