Mass spectrum: Spiperone; LC-ESI-QQ; MS2; ESI; NEGATIVE; CID; CE 40 V; [M-H]-
Name: Spiperone
Class: Non-natural product
Formula: C23H26FN3O2
Exact mass: 395.200893
SMILES: C1CN(CCC12C(=O)NCN2C3=CC=CC=C3)CCCC(=O)C4=CC=C(C=C4)F
InChI: InChI=1S/C23H26FN3O2/c24-19-10-8-18(9-11-19)21(28)7-4-14-26-15-12-23(13-16-26)22(29)25-17-27(23)20-5-2-1-3-6-20/h1-3,5-6,8-11H,4,7,12-17H2,(H,25,29)
Instrument: LCMS-8040 coupled to Nexera XR (Shimadzu, Kyoto, Japan).
Instrument type: LC-ESI-QQ
Ms type: MS2
Ion mode: NEGATIVE
Collision energy: 40 V
Fragmentation mode: CID
Ionization: ESI
Column name: InertSustain C18 ID 2.1 microm, 2.1 x 100 mm (GL Science, Tokyo, Japan).
Retention time: 8.173 min
Precursor m/z: 394.193616
Precursor type: [M-H]-
m/z	relative intensity
17.5	11
28.2	24
42.2	75
55.0	11
56.1	67
80.3	15
84.1	186
92.0	88
93.0	11
95.0	330
96.3	11
106.9	32
116.0	128
119.2	11
127.8	23
129.0	32
131.8	11
137.0	60
141.9	117
144.0	999
147.6	11
160.0	11
161.1	19
161.7	17
162.9	43
163.9	16
171.1	67
173.1	258
174.0	11
174.9	16
180.0	425
188.1	11
192.1	41
217.9	23
230.1	372
316.7	11
394.0	23
