Mass spectrum: (((2-((3R,5R,7R)-Adamantan-1-yl)ethyl)thio)methyl)diphenylsilane; GC-EI-TOF; MS; POSITIVE; 70 V
Name: (((2-((3R,5R,7R)-Adamantan-1-yl)ethyl)thio)methyl)diphenylsilane
Class: Non-natural compound
Formula: C25H32SSi
Exact mass: 392.199398
SMILES: c1ccccc1[SiH](CSCCC12CC3CC(C1)CC(C2)C3)c1ccccc1
InChI: InChI=1S/C25H32SSi/c1-3-7-23(8-4-1)27(24-9-5-2-6-10-24)19-26-12-11-25-16-20-13-21(17-25)15-22(14-20)18-25/h1-10,20-22,27H,11-19H2
Instrument: JMS-T100GCV (JEOL, Akishima, Japan) coupled to Agilent 7890A (Santa Clara, CA, USA) gas chromatograph.
Instrument type: GC-EI-TOF
Ms type: MS
Ion mode: POSITIVE
Ionization: EI
Column name: HP-5 19091J-413 USD364547H (Agilent, Wilmington, USA) with the length 30.0 m, I.D. 0.32 mm, and thickness 0.25 micrometer.
Retention time: 13.99 min
m/z	relative intensity
27.024	7
28.006	48
28.032	1
29.039	17
31.99	18
39.024	14
41.04	79
42.045	3
43.001	4
43.055	17
44.981	4
46.996	4
51.024	7
52.032	3
52.986	29
53.04	23
53.988	3
54.047	4
55.001	5
55.056	77
56.06	5
57.071	6
60.005	3
61.012	60
63.008	3
65.04	23
66.047	7
67.001	6
67.056	103
67.123	1
68.06	7
69.071	31
70.076	2
74.974	4
76.986	3
77.04	78
78.047	25
79.001	27
79.056	216
80.004	3
80.061	23
81.017	4
81.072	87
81.144	2
82.076	6
83.087	5
89.041	4
90.048	4
91.056	323
92.062	45
93.017	21
93.072	168
93.208	1
94.019	2
94.077	17
95.087	23
103.002	18
103.056	6
104.008	5
104.064	5
105.018	295
105.072	64
106.02	35
106.078	14
107.023	11
107.088	65
108.092	7
109.103	3
115.057	5
117.018	5
117.072	7
118.025	5
118.079	2
119.033	27
119.088	25
120.038	7
120.094	6
121.048	6
121.103	12
128.065	3
129.018	8
130.024	2
131.034	10
133.104	14
134.11	5
135.119	277
136.122	30
136.99	35
137.996	11
138.995	4
143.034	3
147.119	3
148.991	2
149.134	2
149.998	4
151.005	64
152.013	291
153.015	48
154.01	25
154.079	3
155.033	27
156.036	4
157.049	5
161.135	12
162.142	9
163.15	16
165.021	15
165.072	24
166.022	3
166.078	6
167.033	5
167.087	9
168.038	2
169.048	2
179.035	10
180.042	32
181.049	267
181.318	4
182.053	57
183.065	999
183.549	2
183.734	3
184.067	174
184.7	2
185.064	43
185.703	1
186.066	5
193.05	12
193.106	16
194.055	6
194.113	7
195.065	166
196.071	130
197.08	235
198.082	44
198.199	1
199.079	10
207.035	5
209.138	341
210.141	49
210.26	1
211.135	17
212.138	2
213.022	4
215.037	198
216.039	35
217.035	18
218.035	3
227.038	9
228.042	2
229.052	587
229.802	2
230.057	253
230.834	1
231.054	74
231.175	1
232.055	21
233.055	3
241.052	8
257.083	6
266.149	6
267.155	2
281.052	2
299.131	3
301.146	17
302.148	4
303.144	2
314.152	3
315.158	2
344.196	25
345.203	32
346.205	9
347.205	2
377.177	329
378.179	103
379.176	39
380.177	9
391.192	6
392.199	71
393.202	24
394.2	9
395.2	2
