Mass spectrum: Fenamidone; LC-ESI-QTOF; MS2; [M-H]-; CID; CE 20V
Name: Fenamidone
Class: Non-natural product
Formula: C17H17N3OS
Exact mass: 311.109233
SMILES: C[C@@]1(C(=O)N(C(=N1)SC)NC2=CC=CC=C2)C3=CC=CC=C3
InChI: InChI=1S/C17H17N3OS/c1-17(13-9-5-3-6-10-13)15(21)20(16(18-17)22-2)19-14-11-7-4-8-12-14/h3-12,19H,1-2H3/t17-/m0/s1
Instrument: X500R QTOF (AB Sciex LLC, MA, USA) coupled to ExionLC AD (AB Sciex LLC, MA, USA).
Instrument type: LC-ESI-QTOF
Ms type: MS2
Ion mode: NEGATIVE
Collision energy: 20 V
Fragmentation mode: CID
Ionization: ESI
Column name: TSKgel ODS-100S 5 um, 2.1 mm Ã— 250 mm, TOSOH
Retention time: 14.5 min
Precursor m/z: 310.101956
Precursor type: [M-H]-
m/z	relative intensity
117.0453	30
143.0617	46
145.077	58
204.0603	50
219.0592	38
222.0561	148
248.0824	424
264.1142	104
266.0453	90
295.078	406
310.1018	999
