Mass spectrum: Nimetazepam; LC-ESI-QQ; MS2; ESI; POSITIVE; CID; CE 50 V; [M+H]+
Name: Nimetazepam
Class: Non-natural product
Formula: C16H13N3O3
Exact mass: 295.09568
SMILES: CN1C(=O)CN=C(C2=C1C=CC(=C2)[N+](=O)[O-])C3=CC=CC=C3
InChI: InChI=1S/C16H13N3O3/c1-18-14-8-7-12(19(21)22)9-13(14)16(17-10-15(18)20)11-5-3-2-4-6-11/h2-9H,10H2,1H3
Instrument: LCMS-8040 coupled to Nexera XR (Shimadzu, Kyoto, Japan).
Instrument type: LC-ESI-QQ
Ms type: MS2
Ion mode: POSITIVE
Collision energy: 50 V
Fragmentation mode: CID
Ionization: ESI
Column name: InertSustain C18 ID 2.1 microm, 2.1 x 100 mm (GL Science, Tokyo, Japan).
Retention time: 8.827 min
Precursor m/z: 296.102957
Precursor type: [M+H]+
m/z	relative intensity
30.1	10
42.4	21
58.1	23
65.3	39
77.3	136
78.2	32
80.3	12
89.2	73
90.2	145
91.3	347
92.3	31
93.1	29
94.1	17
102.1	13
104.2	122
105.3	38
106.4	14
115.1	30
116.2	162
117.2	78
118.2	345
119.3	119
127.2	21
128.2	23
129.1	66
130.0	17
132.2	16
140.2	12
143.1	128
144.0	28
146.1	15
147.1	67
151.1	57
152.1	674
153.2	104
154.1	25
155.4	34
156.3	18
157.2	13
163.1	23
164.1	111
165.1	999
166.2	123
167.1	114
168.1	25
171.2	14
176.2	40
177.2	88
178.2	98
179.2	195
180.1	371
181.2	38
182.2	47
190.1	127
191.2	241
192.2	289
193.2	331
194.2	301
195.1	37
202.2	39
204.1	354
205.2	384
206.2	329
207.2	112
208.3	20
209.2	45
217.2	23
219.2	134
221.1	541
222.1	35
249.1	30
250.2	48
252.1	13
295.1	13
296.2	13
