Mass spectrum: Mepanipyrim; LC-ESI-QTOF; MS2; [M+H]+; CID; CE 50V
Name: Mepanipyrim
Class: Non-natural product
Formula: C14H13N3
Exact mass: 223.110947
SMILES: CC#CC1=NC(=NC(=C1)C)NC2=CC=CC=C2
InChI: InChI=1S/C14H13N3/c1-3-7-13-10-11(2)15-14(17-13)16-12-8-5-4-6-9-12/h4-6,8-10H,1-2H3,(H,15,16,17)
Instrument: X500R QTOF (AB Sciex LLC, MA, USA) coupled to ExionLC AD (AB Sciex LLC, MA, USA).
Instrument type: LC-ESI-QTOF
Ms type: MS2
Ion mode: POSITIVE
Collision energy: 50 V
Fragmentation mode: CID
Ionization: ESI
Column name: TSKgel ODS-100S 5 um, 2.1 mm Ã— 250 mm, TOSOH
Retention time: 15.1 min
Precursor m/z: 224.118224
Precursor type: [M+H]+
m/z	relative intensity
39.0227	81
42.0336	384
51.0228	154
53.0384	98
63.0228	117
65.0383	99
66.0337	207
67.029	157
77.0383	999
78.0341	72
79.0539	230
80.0494	137
89.0385	121
90.0337	102
92.0493	179
93.0571	155
94.065	126
104.0493	234
105.0447	163
106.0647	430
115.054	201
116.0494	123
119.0603	181
140.0496	228
143.0605	162
152.0619	129
181.0763	346
205.076	692
206.0834	221
