Mass spectrum: Amezinium; LC-ESI-QQ; MS2; ESI; POSITIVE; CID; CE 50 V; [M]+
Name: Amezinium
Class: Non-natural product
Formula: [C11H12N3O]+
Exact mass: 202.097477
SMILES: COC1=[N+](N=CC(=C1)N)C2=CC=CC=C2
InChI: InChI=1S/C11H11N3O/c1-15-11-7-9(12)8-13-14(11)10-5-3-2-4-6-10/h2-8,12H,1H3/p+1
Instrument: LCMS-8040 coupled to Nexera XR (Shimadzu, Kyoto, Japan).
Instrument type: LC-ESI-QQ
Ms type: MS2
Ion mode: POSITIVE
Collision energy: 50 V
Fragmentation mode: CID
Ionization: ESI
Column name: InertSustain C18 ID 2.1 microm, 2.1 x 100 mm (GL Science, Tokyo, Japan).
Retention time: 5.434 min
Precursor m/z: 202.097477
Precursor type: [M]+
m/z	relative intensity
28.2	16
39.3	25
40.2	47
41.3	43
43.3	25
44.3	13
49.1	10
50.2	44
51.2	482
53.2	113
54.2	340
63.2	11
65.3	175
66.2	94
67.3	21
68.2	12
77.2	999
78.3	59
79.3	27
82.8	11
89.2	52
90.3	18
91.2	237
92.4	15
93.2	218
95.2	45
101.4	10
102.2	12
103.2	16
104.2	181
105.1	25
106.2	47
108.3	13
114.0	24
115.2	19
117.2	18
118.2	19
119.1	58
130.2	22
131.2	38
132.2	76
144.3	11
159.3	20
185.0	11
186.3	34
