Mass spectrum: Nitrazepam; LC-ESI-QQ; MS2; ESI; NEGATIVE; CID; CE 40 V; [M-H]-
Name: Nitrazepam
Class: Non-natural product
Formula: C15H11N3O3
Exact mass: 281.08003
SMILES: C1C(=O)NC2=C(C=C(C=C2)[N+](=O)[O-])C(=N1)C3=CC=CC=C3
InChI: InChI=1S/C15H11N3O3/c19-14-9-16-15(10-4-2-1-3-5-10)12-8-11(18(20)21)6-7-13(12)17-14/h1-8H,9H2,(H,17,19)
Instrument: LCMS-8040 coupled to Nexera XR (Shimadzu, Kyoto, Japan).
Instrument type: LC-ESI-QQ
Ms type: MS2
Ion mode: NEGATIVE
Collision energy: 40 V
Fragmentation mode: CID
Ionization: ESI
Column name: InertSustain C18 ID 2.1 microm, 2.1 x 100 mm (GL Science, Tokyo, Japan).
Retention time: 8.592 min
Precursor m/z: 280.07275
Precursor type: [M-H]-
m/z	relative intensity
42.2	34
46.1	183
101.2	25
115.2	16
117.2	14
139.3	11
141.0	26
146.0	20
152.1	14
154.6	18
163.9	11
166.1	780
167.0	12
177.1	31
194.1	999
195.1	34
206.0	280
207.3	17
222.1	885
223.0	11
231.3	13
251.9	279
277.4	13
