Mass spectrum: Azamethiophos; LC-ESI-QTOF; MS; POSITIVE
Name: Azamethiophos
Class: Non-natural product
Formula: C9H10ClN2O5PS
Exact mass: 323.973657
SMILES: COP(=O)(OC)SCN1C2=C(C=C(C=N2)Cl)OC1=O
InChI: InChI=1S/C9H10ClN2O5PS/c1-15-18(14,16-2)19-5-12-8-7(17-9(12)13)3-6(10)4-11-8/h3-4H,5H2,1-2H3
Instrument: X500R QTOF (AB Sciex LLC, MA, USA) coupled to ExionLC AD (AB Sciex LLC, MA, USA).
Instrument type: LC-ESI-QTOF
Ms type: MS
Ion mode: POSITIVE
Ionization: ESI
Column name: TSKgel ODS-100S 5 um, 2.1 mm Ã— 250 mm, TOSOH
Retention time: 12.9 min
m/z	relative intensity
182.9955	5
324.9808	999
325.9841	149
326.9782	444
327.9812	55
