Mass spectrum: Hexylbis((pentylthio)methyl)silane; GC-EI-TOF; MS; POSITIVE; 70 V
Name: Hexylbis((pentylthio)methyl)silane
Class: Non-natural compound
Formula: C18H40S2Si
Exact mass: 348.234069
SMILES: CCCCCSC[SiH](CSCCCCC)CCCCCC
InChI: InChI=1S/C18H40S2Si/c1-4-7-10-13-16-21(17-19-14-11-8-5-2)18-20-15-12-9-6-3/h21H,4-18H2,1-3H3
Instrument: JMS-T100GCV (JEOL, Akishima, Japan) coupled to Agilent 7890A (Santa Clara, CA, USA) gas chromatograph.
Instrument type: GC-EI-TOF
Ms type: MS
Ion mode: POSITIVE
Ionization: EI
Column name: HP-5 19091J-413 USD364547H (Agilent, Wilmington, USA) with the length 30.0 m, I.D. 0.32 mm, and thickness 0.25 micrometer.
Retention time: 11.44 min
m/z	relative intensity
27.024	37
28.006	29
28.031	5
29.039	110
29.083	1
30.043	3
31.99	12
39.024	17
40.031	3
41.04	151
41.091	2
42.047	31
43.001	21
43.055	506
43.106	5
43.345	1
44.008	7
44.059	16
44.98	5
45.016	17
45.988	3
46.996	9
53.04	5
55.001	4
55.056	65
56.061	5
57.017	8
57.071	5
58.025	13
59.032	27
59.95	5
60.004	3
60.032	2
60.958	31
61.012	57
61.962	3
62.973	17
63.008	3
67.055	9
68.063	4
69.071	93
70.024	4
70.077	10
71.033	17
71.087	51
72.04	10
72.091	3
72.958	4
73.048	8
74.973	64
75.028	3
75.98	23
76.989	290
77.115	2
77.989	19
78.985	22
81.071	3
83.033	18
83.087	4
84.039	8
85.048	39
86.051	4
86.973	3
87.028	2
88.989	86
89.065	1
89.996	34
91.004	64
92.004	6
92.93	7
93.001	5
94.945	9
95.033	5
97.048	20
98.054	6
99.064	42
100.066	5
100.989	5
101.044	4
103.005	20
104.011	7
105.019	8
106.946	5
107.953	2
108.961	8
109.048	4
111.064	16
112.071	7
113.079	8
115.005	7
117.02	19
117.075	4
118.026	4
119.027	2
120.961	53
121.965	7
122.976	20
123.063	2
123.98	3
124.973	3
125.08	9
126.087	9
127.095	9
128.098	2
129.021	5
131.036	11
133.051	5
134.978	5
136.992	4
143.037	3
145.052	108
145.321	5
146.055	16
147.067	247
148.069	31
149.064	20
150.066	2
157.052	4
159.068	17
160.073	6
161.083	10
162.084	2
171.068	3
173.083	8
174.087	2
175.096	2
187.099	2
191.039	9
193.055	7
194.061	2
201.114	2
205.055	11
206.057	2
207.068	7
215.129	2
227.13	22
227.398	2
228.133	4
229.146	183
229.414	15
230.148	37
230.415	4
231.161	999
231.913	3
232.164	194
232.966	2
233.159	89
233.553	1
234.161	14
235.16	3
245.177	5
263.133	31
264.135	6
265.131	4
277.149	176
277.38	1
278.151	38
279.146	25
280.148	4
291.164	4
347.226	5
348.234	164
349.236	45
350.232	24
351.234	6
