Mass spectrum: 6-(4-{[2-(tetradecanoylamino)ethyl]amino}-4-oxobutanamido)-N,N-dimethylhexan-1-amine N-oxide; ESI-QTOF; MS2; ESI; [M+H]+; CE 50 V
Name: 6-(4-{[2-(tetradecanoylamino)ethyl]amino}-4-oxobutanamido)-N,N-dimethylhexan-1-amine N-oxide
Name: AAO 13-2-2-6
Class: Non-natural product
Formula: C28H56N4O4
Exact mass: 512.43014
SMILES: O=C(NCCNC(=O)CCCCCCCCCCCCC)CCC(=O)NCCCCCC[N+]([O-])(C)C
InChI: InChI=1S/C28H56N4O4/c1-4-5-6-7-8-9-10-11-12-13-16-19-26(33)30-23-24-31-28(35)21-20-27(34)29-22-17-14-15-18-25-32(2,3)36/h4-25H2,1-3H3,(H,29,34)(H,30,33)(H,31,35)
Instrument: X500R QTOF (AB Sciex LLC, MA, USA)
Instrument type: ESI-QTOF
Ms type: MS2
Ion mode: POSITIVE
Collision energy: 50 V
Fragmentation mode: CID
Ionization: ESI
Precursor m/z: 513.437417 
Precursor type: [M+H]+
m/z	relative intensity
55.05386	9
58.06479	68
83.08514	20
98.09603	28
100.03894	99
100.11166	47
112.03891	11
114.12729	17
125.07052	41
126.05455	61
128.14296	13
143.08109	120
182.11712	217
224.17524	29
254.24717	999
271.27373	27
353.27906	34
513.43621	82
