Mass spectrum: Foramsulfuron; LC-ESI-QTOF; MS2; [M-H]-; CID; CE 60V
Name: Foramsulfuron
Class: Non-natural product
Formula: C17H20N6O7S
Exact mass: 452.111418
SMILES: CN(C)C(=O)C1=C(C=C(C=C1)NC=O)S(=O)(=O)NC(=O)NC2=NC(=CC(=N2)OC)OC
InChI: InChI=1S/C17H20N6O7S/c1-23(2)15(25)11-6-5-10(18-9-24)7-12(11)31(27,28)22-17(26)21-16-19-13(29-3)8-14(20-16)30-4/h5-9H,1-4H3,(H,18,24)(H2,19,20,21,22,26)
Instrument: X500R QTOF (AB Sciex LLC, MA, USA) coupled to ExionLC AD (AB Sciex LLC, MA, USA).
Instrument type: LC-ESI-QTOF
Ms type: MS2
Ion mode: NEGATIVE
Collision energy: 60 V
Fragmentation mode: CID
Ionization: ESI
Column name: AQ-C18HP 3 microm, 2.1 mm Ã— 150 mm (GL Science, Tokyo, Japan).
Retention time: 27.5 min
Precursor m/z: 451.104141
Precursor type: [M-H]-
m/z	relative intensity
41.9986	593
65.0147	38
65.9981	42
105.9605	115
107.0126	79
116.0144	125
118.0301	98
122.036	129
133.0406	44
139.0386	91
154.0622	258
160.0042	119
195.9945	74
205.0622	126
224.9979	155
236.014	75
252.045	107
268.04	999
