Mass spectrum: 6-(4-{[5-(tetradecanoylamino)pentyl]amino}-4-oxobutanamido)-N,N-dimethylhexan-1-amine N-oxide; ESI-QTOF; MS2; ESI; [M-H]-; CE 50 V
Name: 6-(4-{[5-(tetradecanoylamino)pentyl]amino}-4-oxobutanamido)-N,N-dimethylhexan-1-amine N-oxide
Name: AAO 13-5-2-6
Class: Non-natural product
Formula: C31H62N4O4
Exact mass: 554.477090
SMILES: [O-][N+](C)(C)CCCCCCNC(=O)CCC(=O)NCCCCCNC(=O)CCCCCCCCCCCCC
InChI: InChI=1S/C31H62N4O4/c1-4-5-6-7-8-9-10-11-12-13-17-22-29(36)32-26-19-16-20-27-34-31(38)24-23-30(37)33-25-18-14-15-21-28-35(2,3)39/h4-28H2,1-3H3,(H,32,36)(H,33,37)(H,34,38)
Instrument: X500R QTOF (AB Sciex LLC, MA, USA)
Instrument type: ESI-QTOF
Ms type: MS2
Ion mode: NEGATIVE
Collision energy: 50 V
Fragmentation mode: CID
Ionization: ESI
Precursor m/z: 553.469813 
Precursor type: [M-H]-
m/z	relative intensity
41.99840	20
97.04046	17
98.02459	502
115.05110	21
152.10784	68
162.09223	12
166.08701	11
179.11878	113
180.10280	714
182.12961	14
183.11362	46
197.12926	60
200.14026	20
209.12944	24
226.21733	145
269.24828	19
282.21833	104
283.26401	22
294.28013	21
311.30650	999
349.32242	23
365.31703	63
392.32782	32
393.31193	138
492.41653	266
521.44331	82
