Mass spectrum: Zotepine; LC-ESI-QQ; MS2; ESI; POSITIVE; CID; CE 10 V; [M+H]+
Name: Zotepine
Class: Non-natural product
Formula: C18H18ClNOS
Exact mass: 331.079759
SMILES: CN(C)CCOC1=CC2=CC=CC=C2SC3=C1C=C(C=C3)Cl
InChI: InChI=1S/C18H18ClNOS/c1-20(2)9-10-21-16-11-13-5-3-4-6-17(13)22-18-8-7-14(19)12-15(16)18/h3-8,11-12H,9-10H2,1-2H3
Instrument: LCMS-8040 coupled to Nexera XR (Shimadzu, Kyoto, Japan).
Instrument type: LC-ESI-QQ
Ms type: MS2
Ion mode: POSITIVE
Collision energy: 10 V
Fragmentation mode: CID
Ionization: ESI
Column name: InertSustain C18 ID 2.1 microm, 2.1 x 100 mm (GL Science, Tokyo, Japan).
Retention time: 10.629 min
Precursor m/z: 332.087036
Precursor type: [M+H]+
m/z	relative intensity
72.3	970
91.2	13
223.2	30
315.4	36
332.2	999
