Mass spectrum: Midazolam; LC-ESI-QQ; MS2; ESI; POSITIVE; CID; CE 50 V; [M+H]+
Name: Midazolam
Class: Non-natural product
Formula: C18H13ClFN3
Exact mass: 325.078191
SMILES: CC1=NC=C2N1C3=C(C=C(C=C3)Cl)C(=NC2)C4=CC=CC=C4F
InChI: InChI=1S/C18H13ClFN3/c1-11-21-9-13-10-22-18(14-4-2-3-5-16(14)20)15-8-12(19)6-7-17(15)23(11)13/h2-9H,10H2,1H3
Instrument: LCMS-8040 coupled to Nexera XR (Shimadzu, Kyoto, Japan).
Instrument type: LC-ESI-QQ
Ms type: MS2
Ion mode: POSITIVE
Collision energy: 50 V
Fragmentation mode: CID
Ionization: ESI
Column name: InertSustain C18 ID 2.1 microm, 2.1 x 100 mm (GL Science, Tokyo, Japan).
Retention time: 9.584 min
Precursor m/z: 326.085468
Precursor type: [M+H]+
m/z	relative intensity
30.3	21
42.3	157
54.1	40
55.2	165
68.4	23
75.2	77
77.2	47
89.1	18
95.2	147
96.1	29
101.2	317
102.2	577
103.2	40
107.2	17
109.2	34
111.2	218
115.2	80
116.3	17
117.2	16
119.1	18
121.6	44
122.4	15
126.2	108
127.2	157
128.1	558
129.1	723
133.1	45
136.0	164
137.1	69
138.1	28
140.2	13
141.0	17
143.2	99
145.0	14
147.1	169
148.0	20
150.2	30
151.1	56
152.0	73
153.2	60
154.2	49
155.1	63
157.2	21
160.9	28
162.1	153
163.1	335
164.0	94
167.2	17
169.3	79
170.1	64
173.0	19
174.1	25
175.2	113
176.1	63
177.2	80
181.2	103
182.1	493
183.1	506
184.0	27
187.1	33
189.1	189
190.3	22
193.1	18
194.2	20
195.0	32
196.2	287
197.1	25
198.1	19
201.0	69
202.2	245
203.2	261
204.0	49
206.1	34
208.1	510
209.1	435
210.2	22
211.1	51
212.1	17
215.0	42
217.0	113
218.1	18
222.1	999
223.1	711
224.1	69
226.0	27
226.8	17
228.0	89
229.2	206
230.2	28
230.9	45
232.1	100
235.1	72
236.1	51
237.1	92
238.1	38
242.3	101
243.1	59
243.9	59
245.0	45
249.1	944
250.1	107
251.1	18
253.2	121
256.2	30
257.1	72
257.9	76
262.1	12
263.1	19
265.0	21
268.1	27
269.2	35
270.2	69
271.0	20
273.0	26
276.1	51
283.0	30
285.1	33
289.1	281
290.2	61
291.2	254
297.0	11
307.0	64
308.0	27
325.8	31
