Mass spectrum: Medazepam; LC-ESI-QQ; MS2; ESI; POSITIVE; CID; CE 20 V; [M+H]+
Name: Medazepam
Class: Non-natural product
Formula: C16H15ClN2
Exact mass: 270.092368
SMILES: CN1CCN=C(C2=C1C=CC(=C2)Cl)C3=CC=CC=C3
InChI: InChI=1S/C16H15ClN2/c1-19-10-9-18-16(12-5-3-2-4-6-12)14-11-13(17)7-8-15(14)19/h2-8,11H,9-10H2,1H3
Instrument: LCMS-8040 coupled to Nexera XR (Shimadzu, Kyoto, Japan).
Instrument type: LC-ESI-QQ
Ms type: MS2
Ion mode: POSITIVE
Ionization: ESI
Collision energy: 20 V
Fragmentation mode: CID
Column name: InertSustain C18 ID 2.1 microm, 2.1 x 100 mm (GL Science, Tokyo, Japan).
Retention time: 10.841 min
Precursor m/z: 271.099645
Precursor type: [M+H]+
m/z	relative intensity
30.4	20
44.3	38
91.2	114
106.2	11
165.1	22
166.1	15
179.1	11
180.1	144
207.2	96
219.2	23
228.1	34
230.1	21
242.2	198
254.2	35
271.2	999
