Mass spectrum: Mexazolam; LC-ESI-QQ; MS2; ESI; NEGATIVE; CID; CE 30 V; [M-H]-
Name: Mexazolam
Class: Non-natural product
Formula: C18H16Cl2N2O2
Exact mass: 362.058876
SMILES: CC1COC2(N1CC(=O)NC3=C2C=C(C=C3)Cl)C4=CC=CC=C4Cl
InChI: InChI=1S/C18H16Cl2N2O2/c1-11-10-24-18(13-4-2-3-5-15(13)20)14-8-12(19)6-7-16(14)21-17(23)9-22(11)18/h2-8,11H,9-10H2,1H3,(H,21,23)
Instrument: LCMS-8040 coupled to Nexera XR (Shimadzu, Kyoto, Japan).
Instrument type: LC-ESI-QQ
Ms type: MS2
Ion mode: NEGATIVE
Ionization: ESI
Collision energy: 30 V
Fragmentation mode: CID
Column name: InertSustain C18 ID 2.1 microm, 2.1 x 100 mm (GL Science, Tokyo, Japan).
Retention time: 10.227 min
Precursor m/z: 361.051599
Precursor type: [M-H]-
m/z	relative intensity
35.2	999
42.1	36
75.1	15
83.9	31
110.9	135
116.0	53
121.0	31
126.2	36
136.0	104
140.5	15
141.2	31
142.2	29
145.0	15
149.9	30
152.0	423
154.0	31
163.9	12
165.0	65
166.1	23
177.0	243
178.2	23
180.6	30
191.0	50
192.0	77
193.0	105
194.1	15
209.1	92
219.2	31
224.9	31
226.1	170
231.1	49
238.2	174
239.0	31
241.6	31
244.1	50
249.1	58
252.1	559
253.0	246
259.8	88
265.0	130
266.9	61
273.9	173
275.1	41
277.0	15
277.8	15
289.0	594
292.9	30
294.9	215
313.3	31
329.2	62
330.6	120
360.4	31
