Mass spectrum: Methyl 4-(3-methylnaphthalen-2-yl)butanoate; GC-EI-TOF; MS; POSITIVE; 70 V
Name: Methyl 4-(3-methylnaphthalen-2-yl)butanoate
Class: Non-natural compound
Formula: C16H18O2
Exact mass: 242.13068
SMILES: O=C(OC)CCCc1cc2ccccc2cc1C
InChI: InChI=1S/C16H18O2/c1-12-10-14-6-3-4-7-15(14)11-13(12)8-5-9-16(17)18-2/h3-4,6-7,10-11H,5,8-9H2,1-2H3
Instrument: JMS-T100GCV (JEOL, Akishima, Japan) coupled to Agilent 7890A (Santa Clara, CA, USA) gas chromatograph.
Instrument type: GC-EI-TOF
Ms type: MS
Ion mode: POSITIVE
Ionization: EI
Column name: ZB1-MS 7HM-G011-11 30x0.32 0.25um 313446 (Agilent, Wilmington, USA) with the length 30.0 m, I.D. 0.32 mm, and thickness 0.25 micrometer.
Retention time: 10.45 min
m/z	relative intensity
39.024	14
39.962	9
41.039	15
42.011	5
43.018	14
45.034	4
50.016	3
51.024	13
52.031	3
53.039	6
55.018	19
59.014	35
59.05	3
63.023	16
64.031	9
65.039	9
69.033	3
69.527	3
70.536	3
74.037	11
75.023	8
76.031	28
76.535	15
77.039	41
77.543	53
78.045	13
82.031	9
82.535	13
83.039	16
83.542	7
84.046	3
87.044	34
88.032	4
89.039	22
89.542	5
90.046	5
90.551	8
91.054	13
91.559	15
92.06	3
93.052	2
101.039	5
102.047	12
103.054	5
105.055	1
105.557	8
113.039	6
114.046	5
115.054	154
116.059	21
121.066	17
121.568	3
126.046	15
127.054	78
128.062	156
129.069	74
130.073	7
138.046	2
139.054	64
140.06	18
141.07	107
142.077	53
143.082	9
150.047	7
151.054	35
152.062	176
152.192	4
153.069	274
153.334	3
153.603	1
154.077	135
155.086	854
155.704	2
156.091	178
156.597	2
157.095	16
163.054	6
164.062	9
165.07	123
166.076	58
166.196	1
167.085	195
167.217	6
168.093	999
168.685	3
169.098	170
169.663	2
170.102	15
170.614	1
170.68	1
171.091	2
176.063	4
177.069	3
178.078	17
179.084	9
180.091	3
181.101	25
182.108	21
183.115	9
193.101	14
194.104	3
195.081	2
209.097	3
210.103	9
211.112	93
212.116	16
242.131	456
242.846	1
243.134	81
244.137	9
