Mass spectrum: Clonazepam; LC-ESI-QQ; MS2; ESI; NEGATIVE; CE 50 V; [M-H]-
Name: Clonazepam
Class: Non-natural product
Formula: C15H10ClN3O3
Exact mass: 315.04105
SMILES: C1C(=O)NC2=C(C=C(C=C2)[N+](=O)[O-])C(=N1)C3=CC=CC=C3Cl
InChI: InChI=1S/C15H10ClN3O3/c16-12-4-2-1-3-10(12)15-11-7-9(19(21)22)5-6-13(11)18-14(20)8-17-15/h1-7H,8H2,(H,18,20)
Instrument: LCMS-8040 coupled to Nexera XR (Shimadzu, Kyoto, Japan).
Instrument type: LC-ESI-QQ
Ms type: MS2
Ion mode: NEGATIVE
Collision energy: 50 V
Ionization: ESI
Column name: InertSustain C18 ID 2.1 microm, 2.1 x 100 mm (GL Science, Tokyo, Japan).
Retention time: 8.612 min
Precursor m/z: 314.03323
Precursor type: [M-H]-
m/z	relative intensity
26	17
35	999
42	132
46	107
66	31
79	34
90	17
122	17
139	17
140	149
146	31
154	34
164	118
165	69
176	17
177	17
190	17
191	331
192	64
202	34
204	52
205	34
219	541
220	34
231	117
247	132
250	30
279	17
286	27
288	33
313	34
