Mass spectrum: Quazepam; LC-ESI-QQ; MS2; ESI; NEGATIVE; CE 10 V; [M-H]-
Name: Quazepam
Class: Non-natural product
Formula: C17H11ClF4N2S
Exact mass: 386.02675
SMILES: C1C(=S)N(C2=C(C=C(C=C2)Cl)C(=N1)C3=CC=CC=C3F)CC(F)(F)F
InChI: InChI=1S/C17H11ClF4N2S/c18-10-5-6-14-12(7-10)16(11-3-1-2-4-13(11)19)23-8-15(25)24(14)9-17(20,21)22/h1-7H,8-9H2
Instrument: LCMS-8040 coupled to Nexera XR (Shimadzu, Kyoto, Japan).
Instrument type: LC-ESI-QQ
Ms type: MS2
Ion mode: NEGATIVE
Collision energy: 10 V
Ionization: ESI
Column name: InertSustain C18 ID 2.1 microm, 2.1 x 100 mm (GL Science, Tokyo, Japan).
Retention time: 10.211 min
Precursor m/z: 385.01893
Precursor type: [M-H]-
m/z	relative intensity
244	999
385	384
