Mass spectrum: (((3-(4-Bromophenyl)propyl)thio)methyl)diphenylsilane; GC-EI-TOF; MS; POSITIVE; 70 V
Name: (((3-(4-Bromophenyl)propyl)thio)methyl)diphenylsilane
Class: Non-natural compound
Formula: C22H23BrSSi
Exact mass: 426.047311
SMILES: Brc1ccc(CCCSC[SiH](c2ccccc2)c2ccccc2)cc1
InChI: InChI=1S/C22H23BrSSi/c23-20-15-13-19(14-16-20)8-7-17-24-18-25(21-9-3-1-4-10-21)22-11-5-2-6-12-22/h1-6,9-16,25H,7-8,17-18H2
Instrument: JMS-T100GCV (JEOL, Akishima, Japan) coupled to Agilent 7890A (Santa Clara, CA, USA) gas chromatograph.
Instrument type: GC-EI-TOF
Ms type: MS
Ion mode: POSITIVE
Ionization: EI
Column name: HP-5 19091J-413 USD364547H (Agilent, Wilmington, USA) with the length 30.0 m, I.D. 0.32 mm, and thickness 0.25 micrometer.
Retention time: 13.81 min
m/z	relative intensity
28.006	26
31.99	10
39.024	14
41.04	20
43.001	4
44.981	6
45.989	10
46.996	10
50.016	4
51.024	11
52.032	3
52.986	37
53.989	4
55.001	6
61.012	104
61.075	1
62.015	5
63.024	11
64.032	5
65.04	14
67.001	7
74.974	6
75.025	4
76.032	4
76.986	4
77.04	30
77.993	3
78.048	14
79.002	32
79.055	4
80.005	4
81.017	5
89.041	45
90.048	70
91.056	181
92.06	14
93.017	20
93.069	1
94.019	2
102.049	7
103.002	23
103.056	11
104.008	6
104.064	8
105.017	315
106.02	37
107.023	12
108.026	1
115.057	43
116.064	25
117.018	6
117.072	105
117.208	1
118.025	4
118.079	32
119.033	22
119.083	3
120.038	6
121.048	4
122.021	4
128.064	3
129.018	10
130.023	2
131.033	10
131.088	3
135.028	5
136.99	26
137.994	5
139	3
143.033	2
149.997	3
150.052	8
151.005	48
152.013	210
153.016	39
153.07	4
154.011	18
154.08	3
155.033	30
156.035	5
157.049	6
165.021	4
165.072	24
166.078	7
167.034	5
167.088	33
168.092	5
168.968	100
169.049	4
169.971	8
170.966	98
171.969	8
179.034	8
180.042	34
181.049	266
181.319	4
181.976	9
182.052	53
182.983	7
183.065	999
183.733	3
183.974	9
184.067	174
184.69	2
184.981	6
185.064	44
185.673	1
185.738	1
186.067	5
193.05	10
193.104	2
194.055	5
194.983	4
195.065	134
195.197	4
195.99	225
196.072	180
196.686	1
196.993	24
197.079	109
197.988	220
198.08	23
198.264	1
198.992	21
199.079	5
207.035	3
209.081	2
213.021	3
215.037	74
216.039	14
217.035	7
227.038	6
229.052	100
230.058	86
231.058	21
232.057	7
256.946	4
257.083	9
258.086	2
258.945	4
260.974	2
332.977	4
334.982	5
336.992	3
348	2
348.994	2
350.002	3
378.043	9
379.048	4
380.042	10
381.047	4
411.024	4
413.023	5
426.047	52
427.05	16
428.046	56
428.213	1
429.048	16
430.045	6
