Mass spectrum: S-Ethyl 4-aminobenzothioate; GC-EI-TOF; MS; POSITIVE; 70 V
Name: S-Ethyl 4-aminobenzothioate
Class: Non-natural compound
Formula: C9H11NOS
Exact mass: 181.056131
SMILES: CCSC(=O)C1=CC=C(C=C1)N
InChI: InChI=1S/C9H11NOS/c1-2-12-9(11)7-3-5-8(10)6-4-7/h3-6H,2,10H2,1H3
Instrument: JMS-T100GCV (JEOL, Akishima, Japan) coupled to Agilent 7890A (Santa Clara, CA, USA) gas chromatograph.
Instrument type: GC-EI-TOF
Ms type: MS
Ion mode: POSITIVE
Ionization: EI
Column name: ZB-1MS 7HM-G011-11 sn:313446 (Agilent, Wilmington, USA) with the length 30.0 m, I.D. 0.32 mm, and thickness 0.25 micrometer.
Retention time: 9.58 min
m/z	relative intensity
26.016	3
27.023	20
28.006	11
29.039	12
31.99	6
34.996	5
38.016	8
39.024	44
40.027	3
41.027	11
42.034	5
44.98	7
45.988	3
50.016	4
51.024	5
52.019	12
53.037	3
54.034	4
55.055	2
57.988	3
58.996	4
61.011	3
62.015	6
63.023	24
64.031	22
65.039	165
65.105	2
66.038	19
67.051	2
75.024	3
80.05	10
90.034	5
91.042	24
92.05	201
92.182	1
93.053	15
97.011	5
119.037	8
120.045	999
120.587	3
121.048	82
121.302	1
121.361	1
122.05	5
123.015	2
124.022	23
125.025	2
136.023	2
152.053	5
181.056	64
182.059	7
183.053	3
