Mass spectrum: Zonisamide; LC-ESI-QQ; MS2; ESI; POSITIVE; CID; CE 40 V; [M+NH4]+
Name: Zonisamide
Class: Non-natural product
Formula: C8H8N2O3S
Exact mass: 212.025556
SMILES: C1=CC=C2C(=C1)C(=NO2)CS(=O)(=O)N
InChI: InChI=1S/C8H8N2O3S/c9-14(11,12)5-7-6-3-1-2-4-8(6)13-10-7/h1-4H,5H2,(H2,9,11,12)
Instrument: LCMS-8040 coupled to Nexera XR (Shimadzu, Kyoto, Japan).
Instrument type: LC-ESI-QQ
Ms type: MS2
Ion mode: POSITIVE
Collision energy: 40 V
Fragmentation mode: CID
Ionization: ESI
Column name: InertSustain C18 ID 2.1 microm, 2.1 x 100 mm (GL Science, Tokyo, Japan).
Retention time: 5.965 min
Precursor m/z: 230.059378
Precursor type: [M+NH4]+
m/z	relative intensity
18.4	83
30.4	12
50.2	12
51.2	118
75.1	30
77.2	999
78.2	44
92.2	33
102.2	255
104.2	119
105.2	54
120.1	34
132.2	227
212.8	11
