Mass spectrum: Amezinium; LC-ESI-QQ; MS2; ESI; POSITIVE; CID; CE 20 V; [M]+
Name: Amezinium
Class: Non-natural product
Formula: [C11H12N3O]+
Exact mass: 202.097477
SMILES: COC1=[N+](N=CC(=C1)N)C2=CC=CC=C2
InChI: InChI=1S/C11H11N3O/c1-15-11-7-9(12)8-13-14(11)10-5-3-2-4-6-10/h2-8,12H,1H3/p+1
Instrument: LCMS-8040 coupled to Nexera XR (Shimadzu, Kyoto, Japan).
Instrument type: LC-ESI-QQ
Ms type: MS2
Ion mode: POSITIVE
Collision energy: 20 V
Fragmentation mode: CID
Ionization: ESI
Column name: InertSustain C18 ID 2.1 microm, 2.1 x 100 mm (GL Science, Tokyo, Japan).
Retention time: 5.434 min
Precursor m/z: 202.097477
Precursor type: [M]+
m/z	relative intensity
77.2	45
79.3	15
91.2	59
93.2	28
95.2	28
104.2	41
106.2	82
107.2	28
108.2	46
112.2	18
116.2	12
118.2	17
130.2	18
132.2	22
143.2	11
145.2	10
159.2	36
170.2	82
185.2	10
186.2	115
187.1	11
202.2	999
