Mass spectrum: Mesosulfuron-methyl; LC-ESI-QTOF; MS2; [M+H]+; CID; CE 60V
Name: Mesosulfuron-methyl
Class: Non-natural product
Formula: C17H21N5O9S2
Exact mass: 503.07807
SMILES: COC1=CC(=NC(=N1)NC(=O)NS(=O)(=O)C2=C(C=CC(=C2)CNS(=O)(=O)C)C(=O)OC)OC
InChI: InChI=1S/C17H21N5O9S2/c1-29-13-8-14(30-2)20-16(19-13)21-17(24)22-33(27,28)12-7-10(9-18-32(4,25)26)5-6-11(12)15(23)31-3/h5-8,18H,9H2,1-4H3,(H2,19,20,21,22,24)
Instrument: X500R QTOF (AB Sciex LLC, MA, USA) coupled to ExionLC AD (AB Sciex LLC, MA, USA).
Instrument type: LC-ESI-QTOF
Ms type: MS2
Ion mode: POSITIVE
Collision energy: 60 V
Fragmentation mode: CID
Ionization: ESI
Column name: AQ-C18HP 3 microm, 2.1 mm Ã— 150 mm (GL Science, Tokyo, Japan).
Retention time: 30.50 min
Precursor m/z: 504.085347
Precursor type: [M+H]+
m/z	relative intensity
83.024	390
100.0392	69
139.0502	461
156.0771	94
157.061	164
162.0552	336
182.0561	999
