Mass spectrum: Quazepam; LC-ESI-QQ; MS2; ESI; POSITIVE; CE 40 V; [M+H]+
Name: Quazepam
Class: Non-natural product
Formula: C17H11ClF4N2S
Exact mass: 386.02675
SMILES: C1C(=S)N(C2=C(C=C(C=C2)Cl)C(=N1)C3=CC=CC=C3F)CC(F)(F)F
InChI: InChI=1S/C17H11ClF4N2S/c18-10-5-6-14-12(7-10)16(11-3-1-2-4-13(11)19)23-8-15(25)24(14)9-17(20,21)22/h1-7H,8-9H2
Instrument: LCMS-8040 coupled to Nexera XR (Shimadzu, Kyoto, Japan).
Instrument type: LC-ESI-QQ
Ms type: MS2
Ion mode: POSITIVE
Collision energy: 40 V
Ionization: ESI
Column name: InertSustain C18 ID 2.1 microm, 2.1 x 100 mm (GL Science, Tokyo, Japan).
Retention time: 10.211 min
Precursor m/z: 387.03403
Precursor type: [M+H]+
m/z	relative intensity
46	29
69	14
72	50
73	12
101	29
109	20
136	14
137	39
138	26
139	40
145	29
155	29
163	11
183	54
192	43
198	34
200	21
202	14
204	21
208	29
209	56
211	62
217	29
223	110
224.6	29
225.3	29
228	14
231	14
234	46
237	14
238	14
239	14
241	14
244	104
245	43
246	14
248	27
250	14
251	125
253	14
257	25
258	999
259	50
263	15
264	14
270	29
273	132
274	151
276	21
278	191
285	130
286	57
293	263
294	14
303	132
304	244
306	34
312	51
313	786
319	14
335	29
341	17
342	21
354	257
386	13
387	103
