Mass spectrum: Alprazolam; LC-ESI-QQ; MS2; ESI; POSITIVE; CE 40 V; [M+H]+
Name: Alprazolam
Class: Non-natural product
Formula: C17H13ClN4
Exact mass: 308.08286
SMILES: CC1=NN=C2N1C3=C(C=C(C=C3)Cl)C(=NC2)C4=CC=CC=C4
InChI: InChI=1S/C17H13ClN4/c1-11-20-21-16-10-19-17(12-5-3-2-4-6-12)14-9-13(18)7-8-15(14)22(11)16/h2-9H,10H2,1H3
Instrument: LCMS-8040 coupled to Nexera XR (Shimadzu, Kyoro, Japan).
Instrument type: LC-ESI-QQ
Ms type: MS2
Ion mode: POSITIVE
Collision energy: 40 V
Ionization: ESI
Column name: InertSustain C18 ID 2.1 microm, 2.1 x 100 mm (GL Science, Tokyo, Japan).
Retention time: 8.958 min
Precursor m/z: 309.09014
Precursor type: [M+H]+
m/z	relative intensity
42	37
57	10
66	21
74	11
77	96
102	17
103	19
104	20
111	174
116	22
127	10
128	26
129	88
131	67
138	90
151	48
153	15
162	17
163	33
165	60
166	15
168	10
172	17
176	12
177	65
178	44
189	22
190	13
191	37
198	16
203	54
204	96
205	999
206	35
213	23
216	65
217	23
218	29
219	133
224	47
227	23
231	17
239	76
240	68
241	68
243	17
245	26
246	29
253	24
255	36
265	17
274	80
280	24
281	481
282	18
309	27
