Mass spectrum: Oxazolam; LC-ESI-QQ; MS2; ESI; NEGATIVE; CE 50 V; [M-H]-
Name: Oxazolam
Class: Non-natural product
Formula: C18H17ClN2O2
Exact mass: 328.09785
SMILES: CC1CN2CC(=O)NC3=C(C2(O1)C4=CC=CC=C4)C=C(C=C3)Cl
InChI: InChI=1S/C18H17ClN2O2/c1-12-10-21-11-17(22)20-16-8-7-14(19)9-15(16)18(21,23-12)13-5-3-2-4-6-13/h2-9,12H,10-11H2,1H3,(H,20,22)
Instrument: LCMS-8040 coupled to Nexera XR (Shimadzu, Kyoto, Japan).
Instrument type: LC-ESI-QQ
Ms type: MS2
Ion mode: NEGATIVE
Collision energy: 50 V
Ionization: ESI
Column name: InertSustain C18 ID 2.1 microm, 2.1 x 100 mm (GL Science, Tokyo, Japan).
Retention time: 10.122, 10.197 min (broad two peaks)
Precursor m/z: 327.09002
Precursor type: [M-H]-
m/z	relative intensity
35	874
66	432
111	618
138	419
151	432
185	215
205	215
231	920
240	215
241	999
