Mass spectrum: Amlodipine; LC-ESI-QQ; MS2; ESI; NEGATIVE; CID; CE 20 V; [M-H]-
Name: Amlodipine
Class: Non-natural product
Formula: C20H25ClN2O5
Exact mass: 408.145193
SMILES: CCOC(=O)C1=C(NC(=C(C1C2=CC=CC=C2Cl)C(=O)OC)C)COCCN
InChI: InChI=1S/C20H25ClN2O5/c1-4-28-20(25)18-15(11-27-10-9-22)23-12(2)16(19(24)26-3)17(18)13-7-5-6-8-14(13)21/h5-8,17,23H,4,9-11,22H2,1-3H3
Instrument: LCMS-8040 coupled to Nexera XR (Shimadzu, Kyoto, Japan).
Instrument type: LC-ESI-QQ
Ms type: MS2
Ion mode: NEGATIVE
Collision energy: 20 V
Fragmentation mode: CID
Ionization: ESI
Column name: InertSustain C18 ID 2.1 microm, 2.1 x 100 mm (GL Science, Tokyo, Japan).
Retention time: 6.176 min
Precursor m/z: 407.137916
Precursor type: [M-H]-
m/z	relative intensity
35.1	307
111.0	492
161.0	17
178.0	39
178.9	46
191.8	19
207.2	13
222.1	30
237.0	44
242.1	12
249.1	46
251.0	140
253.1	17
267.2	81
281.0	85
287.0	41
295.1	999
300.1	35
301.3	17
317.0	27
325.2	18
331.2	12
339.3	77
360.1	47
361.2	150
375.2	103
407.2	293
