Mass spectrum: S-Ethyl 4-(methoxymethoxy)benzothioate; GC-EI-TOF; MS; POSITIVE; 70 V
Name: S-Ethyl 4-(methoxymethoxy)benzothioate
Class: Non-natural compound
Formula: C11H14O3S
Exact mass: 226.066366
SMILES: CCSC(=O)C1=CC=C(C=C1)OCOC
InChI: InChI=1S/C11H14O3S/c1-3-15-11(12)9-4-6-10(7-5-9)14-8-13-2/h4-7H,3,8H2,1-2H3
Instrument: JMS-T100GCV (JEOL, Akishima, Japan) coupled to Agilent 7890A (Santa Clara, CA, USA) gas chromatograph.
Instrument type: GC-EI-TOF
Ms type: MS
Ion mode: POSITIVE
Ionization: EI
Column name: ZB-1MS 7HM-G011-11 sn:313446 (Agilent, Wilmington, USA) with the length 30.0 m, I.D. 0.32 mm, and thickness 0.25 micrometer.
Retention time: 9.59 min
m/z	relative intensity
26.015	5
27.023	39
28.006	13
28.031	5
29.003	49
29.039	42
30.01	3
31.99	8
34.995	8
38.016	15
39.023	17
44.026	3
44.98	14
45.034	999
45.087	9
45.365	3
45.592	2
45.842	1
45.988	4
46.037	25
46.093	1
46.995	2
50.016	37
51.023	12
53.003	4
53.039	7
57.988	4
58.995	7
61.011	6
62.016	9
63.024	51
64.031	52
65.039	26
66.011	6
66.044	2
67.018	3
68.98	6
69.988	3
74.016	9
75.024	18
76.031	67
77.039	48
78.045	7
79.054	5
81.988	2
89.006	4
91.055	3
92.026	70
93.033	16
94.039	2
96.003	3
97.011	15
103.018	7
104.026	51
105.033	15
106.041	5
107.05	23
108.003	4
108.054	2
109.011	3
120.021	12
121.029	26
122.032	2
125.006	16
133.029	5
134.036	3
135.044	435
135.558	1
135.62	1
136.048	41
137.054	7
153.038	13
165.055	812
165.693	2
166.058	86
166.613	2
167.06	10
168.064	1
195.048	9
226.066	26
227.07	4
