Mass spectrum: Propyphenazone; LC-ESI-QQ; MS2; ESI; POSITIVE; CID; CE 50 V; [M+H]+
Name: Propyphenazone
Class: Non-natural product
Formula: C14H18N2O
Exact mass: 230.141905
SMILES: CC1=C(C(=O)N(N1C)C2=CC=CC=C2)C(C)C
InChI: InChI=1S/C14H18N2O/c1-10(2)13-11(3)15(4)16(14(13)17)12-8-6-5-7-9-12/h5-10H,1-4H3
Instrument: LCMS-8040 coupled to Nexera XR (Shimadzu, Kyoto, Japan).
Instrument type: LC-ESI-QQ
Ms type: MS2
Ion mode: POSITIVE
Collision energy: 50 V
Fragmentation mode: CID
Ionization: ESI
Column name: InertSustain C18 ID 2.1 microm, 2.1 x 100 mm (GL Science, Tokyo, Japan).
Retention time: 8.601 min
Precursor m/z: 231.149182
Precursor type: [M+H]+
m/z	relative intensity
27.3	30
28.3	24
29.4	13
30.3	37
32.2	11
39.3	81
41.3	104
42.4	61
43.2	44
51.2	92
53.3	38
55.2	100
56.2	999
58.2	12
65.2	110
66.2	10
67.2	39
68.2	13
70.3	28
77.2	659
78.2	25
79.2	36
80.3	68
81.2	79
82.3	257
90.1	15
91.2	40
92.2	54
94.2	61
95.2	31
96.2	65
97.2	19
103.1	13
104.1	51
115.1	67
117.1	55
118.3	32
119.2	11
120.2	18
128.1	17
130.2	54
131.2	33
140.1	21
143.0	17
144.2	32
158.1	10
201.2	12
231.2	21
