Mass spectrum: Acetazolamide; LC-ESI-QQ; MS2; ESI; POSITIVE; CID; CE 50 V; [M+H]+
Name: Acetazolamide
Class: Non-natural product
Formula: C4H6N4O3S2
Exact mass: 221.988117
SMILES: CC(=O)NC1=NN=C(S1)S(=O)(=O)N
InChI: InChI=1S/C4H6N4O3S2/c1-2(9)6-3-7-8-4(12-3)13(5,10)11/h1H3,(H2,5,10,11)(H,6,7,9)
Instrument: LCMS-8040 coupled to Nexera XR (Shimadzu, Kyoto, Japan).
Instrument type: LC-ESI-QQ
Ms type: MS2
Ion mode: POSITIVE
Collision energy: 50 V
Fragmentation mode: CID
Ionization: ESI
Column name: InertSustain C18 ID 2.1 microm, 2.1 x 100 mm (GL Science, Tokyo, Japan).
Retention time: 4.122 min
Precursor m/z: 222.995394
Precursor type: [M+H]+
m/z	relative intensity
15.6	10
28.3	21
32.2	21
42.3	148
43.2	755
44.2	121
46.2	967
48.3	30
58.2	182
59.2	999
60.2	302
64.3	23
68.2	15
73.2	730
75.0	21
80.2	171
85.1	14
100.1	96
102.1	37
163.9	151
181.0	64
222.8	13
