Mass spectrum: Temazepam; LC-ESI-QQ; MS2; ESI; POSITIVE; CID; CE 40 V; [M+H]+
Name: Temazepam
Class: Non-natural product
Formula: C16H13ClN2O2
Exact mass: 300.06655
SMILES: CN1C2=C(C=C(C=C2)Cl)C(=NC(C1=O)O)C3=CC=CC=C3
InChI: InChI=1S/C16H13ClN2O2/c1-19-13-8-7-11(17)9-12(13)14(18-15(20)16(19)21)10-5-3-2-4-6-10/h2-9,15,20H,1H3
Instrument: LCMS-8040 coupled to Nexera XR (Shimadzu, Kyoto, Japan).
Instrument type: LC-ESI-QQ
Ms type: MS2
Ion mode: POSITIVE
Collision energy: 40 V
Fragmentation mode: CID
Ionization: ESI
Column name: InertSustain C18 ID 2.1 microm, 2.1 x 100 mm (GL Science, Tokyo, Japan).
Retention time: 9.147 min
Precursor m/z: 301.07383
Precursor type: [M+H]+
m/z	relative intensity
77.2	155
89.2	77
90.1	27
91.2	37
99.0	33
100.1	20
103.2	16
104.1	74
111.1	98
116.2	24
117.2	159
124.1	32
125.1	224
126.9	18
136.1	97
138.0	39
142.2	98
150.1	74
151.1	64
152.1	98
165.1	74
166.1	25
166.9	15
177.1	757
179.2	40
180.1	77
191.1	13
192.1	30
193.2	413
203.9	10
205.1	109
212.2	13
214.2	23
218.9	20
220.2	19
228.2	43
239.1	135
242.9	17
253.1	25
255.1	999
257.3	14
271.0	11
