Mass spectrum: Spiperone; LC-ESI-QQ; MS2; ESI; NEGATIVE; CID; CE 50 V; [M-H]-
Name: Spiperone
Class: Non-natural product
Formula: C23H26FN3O2
Exact mass: 395.200893
SMILES: C1CN(CCC12C(=O)NCN2C3=CC=CC=C3)CCCC(=O)C4=CC=C(C=C4)F
InChI: InChI=1S/C23H26FN3O2/c24-19-10-8-18(9-11-19)21(28)7-4-14-26-15-12-23(13-16-26)22(29)25-17-27(23)20-5-2-1-3-6-20/h1-3,5-6,8-11H,4,7,12-17H2,(H,25,29)
Instrument: LCMS-8040 coupled to Nexera XR (Shimadzu, Kyoto, Japan).
Instrument type: LC-ESI-QQ
Ms type: MS2
Ion mode: NEGATIVE
Collision energy: 50 V
Fragmentation mode: CID
Ionization: ESI
Column name: InertSustain C18 ID 2.1 microm, 2.1 x 100 mm (GL Science, Tokyo, Japan).
Retention time: 8.173 min
Precursor m/z: 394.193616
Precursor type: [M-H]-
m/z	relative intensity
26.3	63
28.2	42
42.3	29
56.0	91
65.9	22
84.2	277
92.1	238
95.0	498
96.1	11
101.0	21
102.8	11
107.1	22
116.0	306
121.1	40
127.5	11
129.1	55
132.0	26
137.1	58
142.0	238
144.0	999
149.1	53
150.9	39
156.9	11
159.9	11
160.8	22
163.0	172
163.9	21
167.0	11
168.7	11
173.0	82
180.0	151
201.1	22
230.0	89
