Mass spectrum: Etizolam; LC-ESI-QQ; MS2; ESI; POSITIVE; CE 40 V; [M+H]+
Name: Etizolam
Class: Non-natural product
Formula: C17H15ClN4S
Exact mass: 342.07058
SMILES: CCC1=CC2=C(S1)N3C(=NN=C3CN=C2C4=CC=CC=C4Cl)C
InChI: InChI=1S/C17H15ClN4S/c1-3-11-8-13-16(12-6-4-5-7-14(12)18)19-9-15-21-20-10(2)22(15)17(13)23-11/h4-8H,3,9H2,1-2H3
Instrument: LCMS-8040 coupled to Nexera XR (Shimadzu, Kyoro, Japan).
Instrument type: LC-ESI-QQ
Ms type: MS2
Ion mode: POSITIVE
Collision energy: 40 V
Ionization: ESI
Column name: InertSustain C18 ID 2.1 microm, 2.1 x 100 mm (GL Science, Tokyo, Japan).
Retention time: 9.049 min
Precursor m/z: 343.07786
Precursor type: [M+H]+
m/z	relative intensity
42	45
45	66
56	19
57	48
58	10
59	15
66	20
67	24
71	40
73	20
77	10
78	20
79	37
82	20
85	24
89	20
91	79
92	18
93	10
94	10
97	58
99	10
102	109
104	47
105	12
106	67
109	130
110	20
111	85
112	20
113	37
115	10
116	10
117	37
118	46
119	20
121	85
122	161
123	130
124	66
125	10
129	20
132	20
134	10
135	34
136	46
138	651
140	20
145	20
146	20
147	20
148	188
150	161
151	113
155	71
156	10
158	40
160	20
161	10
162	173
163	200
165	123
166	10
171	92
172	34
173	38
174	29
175	20
176	29
178	102
180	20
181	43
182	10
183	32
184	20
185	20
189	20
190	37
191	184
192	20
194	40
196	31
197	39
198	50
199	25
200	20
202	10
203	10
204	61
205	38
206	150
207	36
208	20
209	30
211	150
213	39
214	45
215	10
216	39
217	93
218	47
219	29
220	24
222	32
223	310
224	548
226	20
227	28
229	20
232	63
233	49
234	20
235	59
236	30
237	59
238	110
239	210
241	20
244	85
245	348
246	87
248	142
249	71
251	156
252	25
253	71
254	27
256	20
258	133
259	583
260	128
261	58
262	23
263	10
264	55
265	57
266	20
267	40
269	20
271	30
272	63
273	178
274	76
275	149
279	272
280	49
283	29
285	141
286	40
287	37
289	77
290	73
291	66
292	20
293	147
295	488
305	10
307	31
308	92
309	54
314	999
315	48
316	54
327	39
342	19
343	49
