Mass spectrum: ((Cycloheptylthio)methyl)diphenylsilane; GC-EI-TOF; MS; POSITIVE; 70 V
Name: ((Cycloheptylthio)methyl)diphenylsilane
Class: Non-natural compound
Formula: C20H26SSi
Exact mass: 326.152448
SMILES: c1cccc(c1)[SiH](CSC1CCCCCC1)c1ccccc1
InChI: InChI=1S/C20H26SSi/c1-2-6-12-18(11-5-1)21-17-22(19-13-7-3-8-14-19)20-15-9-4-10-16-20/h3-4,7-10,13-16,18,22H,1-2,5-6,11-12,17H2
Instrument: JMS-T100GCV (JEOL, Akishima, Japan) coupled to Agilent 7890A (Santa Clara, CA, USA) gas chromatograph.
Instrument type: GC-EI-TOF
Ms type: MS
Ion mode: POSITIVE
Ionization: EI
Column name: HP-5 19091J-413 USD364547H (Agilent, Wilmington, USA) with the length 30.0 m, I.D. 0.32 mm, and thickness 0.25 micrometer.
Retention time: 12.17 min
m/z	relative intensity
27.024	18
28.006	19
28.031	4
29.039	37
31.99	8
39.024	32
40.031	4
41.04	122
41.091	1
42.045	7
43.001	4
43.055	37
44.981	9
46.996	5
51.024	9
52.031	2
52.985	37
53.04	21
53.988	3
54.048	24
55.001	6
55.055	422
56.059	20
57.071	3
61.012	3
65.04	16
66.047	5
67.001	6
67.056	47
68.063	19
69.071	27
74.973	8
76.986	3
77.04	30
77.993	3
78.047	12
79.001	33
79.056	13
80.004	4
80.063	3
81.017	5
81.071	39
82.079	34
83.083	3
87.028	2
89.041	5
90.048	4
91.056	194
92.06	18
93.017	20
93.071	6
95.087	34
96.094	14
97.103	49
98.106	4
103.002	22
104.007	6
105.017	307
106.019	37
107.024	13
110.11	8
115.056	5
117.018	5
117.071	3
118.023	3
119.033	22
120.038	5
121.047	3
128.066	8
129.017	10
129.073	4
130.022	2
131.033	10
136.989	55
137.996	53
139.003	29
139.998	6
141.002	2
143.033	3
143.09	28
144.094	3
148.99	2
149.997	5
151.005	96
152.012	435
152.558	1
153.015	81
154.01	38
154.078	4
155.032	31
156.035	5
157.047	6
165.072	20
166.077	5
167.033	4
167.087	7
169.048	3
170.057	2
179.033	7
180.041	34
181.049	224
181.318	3
182.052	51
183.064	999
183.735	3
184.066	179
184.695	2
185.063	45
185.714	1
186.066	5
193.048	9
194.054	4
195.064	121
196.071	88
197.079	162
198.081	30
199.079	7
213.02	4
214.027	3
215.036	233
216.038	43
217.034	21
218.035	3
227.036	11
228.04	3
229.051	100
230.058	191
231.064	88
232.061	24
233.063	7
235.097	3
278.149	3
311.129	15
312.132	4
326.152	67
326.293	1
327.155	19
328.152	7
