Mass spectrum: Bensulfuron-methyl; LC-ESI-QTOF; MS2; [M+H]+; CID; CE 20V
Name: Bensulfuron-methyl
Class: Non-natural product
Formula: C16H18N4O7S
Exact mass: 410.08962
SMILES: COC1=CC(=NC(=N1)NC(=O)NS(=O)(=O)CC2=CC=CC=C2C(=O)OC)OC
InChI: InChI=1S/C16H18N4O7S/c1-25-12-8-13(26-2)18-15(17-12)19-16(22)20-28(23,24)9-10-6-4-5-7-11(10)14(21)27-3/h4-8H,9H2,1-3H3,(H2,17,18,19,20,22)
Instrument: X500R QTOF (AB Sciex LLC, MA, USA) coupled to ExionLC AD (AB Sciex LLC, MA, USA).
Instrument type: LC-ESI-QTOF
Ms type: MS2
Ion mode: POSITIVE
Collision energy: 20 V
Fragmentation mode: CID
Ionization: ESI
Column name: AQ-C18HP 3 microm, 2.1 mm Ã— 150 mm (GL Science, Tokyo, Japan).
Retention time: 31.6 min
Precursor m/z: 411.096897
Precursor type: [M+H]+
m/z	relative intensity
91.0541	34
119.049	45
149.0593	999
156.0763	86
182.0556	729
213.0216	112
411.0963	479
