Mass spectrum: Oxazolam; LC-ESI-QQ; MS2; ESI; POSITIVE; CE 50 V; [M+H]+
Name: Oxazolam
Class: Non-natural product
Formula: C18H17ClN2O2
Exact mass: 328.09785
SMILES: CC1CN2CC(=O)NC3=C(C2(O1)C4=CC=CC=C4)C=C(C=C3)Cl
InChI: InChI=1S/C18H17ClN2O2/c1-12-10-21-11-17(22)20-16-8-7-14(19)9-15(16)18(21,23-12)13-5-3-2-4-6-13/h2-9,12H,10-11H2,1H3,(H,20,22)
Instrument: LCMS-8040 coupled to Nexera XR (Shimadzu, Kyoto, Japan).
Instrument type: LC-ESI-QQ
Ms type: MS2
Ion mode: POSITIVE
Collision energy: 50 V
Ionization: ESI
Column name: InertSustain C18 ID 2.1 microm, 2.1 x 100 mm (GL Science, Tokyo, Japan).
Retention time: 10.122, 10.197 min (broad two peaks)
Precursor m/z: 329.10513
Precursor type: [M+H]+
m/z	relative intensity
30	11
31	148
39	73
41	401
42	124
43	44
52	11
54	43
59	500
63	11
65	63
70	461
76	11
77	209
79	17
89	52
90	50
91	511
99	38
102	72
103	42
104	245
105	165
106	18
110	11
111	66
113	257
114	22
116	252
117	96
118	75
123	22
124	44
125	11
126	31
127	20
129	22
130	102
131	52
133	35
137	51
138	189
140	999
143	22
144	22
149	22
150	27
151	83
152	55
154	83
156	22
158	22
163	84
165	636
166	189
168	11
178	16
180	121
181	11
187	44
190	182
191	110
193	256
198	44
199	50
203	38
205	42
207	134
208	304
214	102
217	86
218	55
221	27
226	137
227	65
238	22
239	11
241	259
242	65
252	29
254	22
270	125
271	132
281	65
329	22
