Mass spectrum: Clobazam; LC-ESI-QQ; MS2; ESI; POSITIVE; CE 40 V; [M+H]+
Name: Clobazam
Class: Non-natural product
Formula: C16H13ClN2O2
Exact mass: 300.06655
SMILES: CN1C(=O)CC(=O)N(C2=C1C=CC(=C2)Cl)C3=CC=CC=C3
InChI: InChI=1S/C16H13ClN2O2/c1-18-13-8-7-11(17)9-14(13)19(16(21)10-15(18)20)12-5-3-2-4-6-12/h2-9H,10H2,1H3
Instrument: LCMS-8040 coupled to Nexera XR (Shimadzu, Kyoto, Japan).
Instrument type: LC-ESI-QQ
Ms type: MS2
Ion mode: POSITIVE
Collision energy: 40 V
Ionization: ESI
Column name: InertSustain C18 ID 2.1 microm, 2.1 x 100 mm (GL Science, Tokyo, Japan).
Retention time: 8.818 min
Precursor m/z: 301.07383
Precursor type: [M+H]+
m/z	relative intensity
43	25
69	75
77	208
90	25
91	26
105	585
111	25
112	25
114	10
117	13
118	68
119	25
127	25
148	51
153	389
155	13
166	23
167	62
179	20
181	124
182	165
183	49
195	182
200	93
206	13
208	25
214	97
215	258
216	275
217	22
223	319
224	999
244	141
255	13
259	414
