Mass spectrum: Bromazepam; LC-ESI-QQ; MS2; ESI; NEGATIVE; CID; CE 30 V; [M+H]+
Name: Bromazepam
Class: Non-natural product
Formula: C14H10BrN3O
Exact mass: 315.00071
SMILES: C1C(=O)NC2=C(C=C(C=C2)Br)C(=N1)C3=CC=CC=N3
InChI: InChI=1S/C14H10BrN3O/c15-9-4-5-11-10(7-9)14(17-8-13(19)18-11)12-3-1-2-6-16-12/h1-7H,8H2,(H,18,19)
Instrument: LCMS-8040 coupled to Nexera XR (Shimadzu, Kyoto, Japan).
Instrument type: LC-ESI-QQ
Ms type: MS2
Ion mode: NEGATIVE
Collision energy: 30 V
Fragmentation mode: CID
Ionization: ESI
Column name: InertSustain C18 ID 2.1 microm, 2.1 x 100 mm (GL Science, Tokyo, Japan).
Retention time: 8.299 min
Precursor m/z: 313.99344
Precursor type: [M-H]-
m/z	relative intensity
79.0	548
206.2	23
233.1	12
286.0	999
287.1	18
296.2	14
312.0	19
314.1	30
