Mass spectrum: Clothianidin; LC-ESI-QTOF; MS2; [M+H]+; CID; CE 60V
Name: Clothianidin
Class: Non-natural product
Formula: C6H8ClN5O2S
Exact mass: 249.008723
SMILES: CNC(=N[N+](=O)[O-])NCC1=CN=C(S1)Cl
InChI: InChI=1S/C6H8ClN5O2S/c1-8-6(11-12(13)14)10-3-4-2-9-5(7)15-4/h2H,3H2,1H3,(H2,8,10,11)
Instrument: X500R QTOF (AB Sciex LLC, MA, USA) coupled to ExionLC AD (AB Sciex LLC, MA, USA).
Instrument type: LC-ESI-QTOF
Ms type: MS2
Ion mode: POSITIVE
Collision energy: 60 V
Fragmentation mode: CID
Ionization: ESI
Column name: TSKgel ODS-100S 5 um, 2.1 mm Ã— 250 mm, TOSOH
Retention time: 11.2 min
Precursor m/z: 250.016
Precursor type: [M+H]+
m/z	relative intensity
42.0335	107
43.0287	108
44.9792	618
54.0335	326
55.0414	119
57.0446	279
58.9946	112
59.99	56
61.9792	47
69.0447	136
70.9949	501
71.9899	43
78.9404	132
79.029	63
81.0445	78
82.0521	41
83.06	143
83.9901	130
86.0057	999
87.9946	105
96.0555	796
98.0058	163
98.0713	62
99.001	58
108.0558	71
110.0713	876
111.0789	307
113.0167	755
119.967	150
126.0117	76
131.967	706
132.9748	177
146.977	62
