Mass spectrum: S-Ethyl 4-phenylbenzothioate; GC-EI-TOF; MS; POSITIVE; 70 V
Name: S-Ethyl 4-phenylbenzothioate
Class: Non-natural compound
Formula: C15H14OS
Exact mass: 242.076536
SMILES: CCSC(=O)C1=CC=C(C=C1)C2=CC=CC=C2
InChI: InChI=1S/C15H14OS/c1-2-17-15(16)14-10-8-13(9-11-14)12-6-4-3-5-7-12/h3-11H,2H2,1H3
Instrument: JMS-T100GCV (JEOL, Akishima, Japan) coupled to Agilent 7890A (Santa Clara, CA, USA) gas chromatograph.
Instrument type: GC-EI-TOF
Ms type: MS
Ion mode: POSITIVE
Ionization: EI
Column name: HP-5MS 30x0.25 0.25microm 19091S-4 (Agilent, Wilmington, USA) with the length 30.0 m, I.D. 0.25 mm, and thickness 0.25 micrometer.
Retention time: 11.61 min
m/z	relative intensity
26.015	4
27.023	42
28.006	10
28.031	5
29.039	24
31.989	4
34.996	21
39.023	7
44.98	11
45.988	7
50.015	10
51.023	23
52.03	4
57.988	4
58.996	8
60.003	3
61.012	10
62.016	4
63.023	15
74.015	11
75.023	19
75.527	4
76.031	32
76.533	5
77.039	28
78.045	3
86.015	3
87.023	7
88.03	3
89.039	5
90.532	4
98.015	4
99.023	4
100.03	3
101.039	10
102.047	19
103.052	4
107.04	3
113.039	4
115.055	9
125.039	5
126.047	33
127.054	44
128.059	5
139.055	4
141.07	3
150.047	31
151.054	115
151.187	3
152.062	430
152.604	2
152.671	2
153.069	204
154.073	24
155.078	2
180.057	3
181.065	999
181.732	3
182.068	142
182.682	2
183.072	12
183.69	1
184.035	10
185.043	18
186.046	3
207.031	2
242.077	57
243.08	10
244.075	3
