Mass spectrum: Zonisamide; LC-ESI-QQ; MS; ESI; POSITIVE
Name: Zonisamide
Class: Non-natural product
Formula: C8H8N2O3S
Exact mass: 212.025556
SMILES: C1=CC=C2C(=C1)C(=NO2)CS(=O)(=O)N
InChI: InChI=1S/C8H8N2O3S/c9-14(11,12)5-7-6-3-1-2-4-8(6)13-10-7/h1-4H,5H2,(H2,9,11,12)
Instrument: LCMS-8040 coupled to Nexera XR (Shimadzu, Kyoto, Japan).
Instrument type: LC-ESI-QQ
Ms type: MS
Ion mode: POSITIVE
Ionization: ESI
Column name: InertSustain C18 ID 2.1 microm, 2.1 x 100 mm (GL Science, Tokyo, Japan).
Retention time: 5.965 min
m/z	relative intensity
213.1	999
214.1	86
215.1	52
219.1	18
230.1	345
231.2	39
232.2	20
235.1	429
236.1	42
237.1	24
251.1	104
252.1	11
253.1	12
447.2	21
