Mass spectrum: Oxazolam; LC-ESI-QQ; MS; ESI; NEGATIVE
Name: Oxazolam
Class: Non-natural product
Formula: C18H17ClN2O2
Exact mass: 328.09785
SMILES: CC1CN2CC(=O)NC3=C(C2(O1)C4=CC=CC=C4)C=C(C=C3)Cl
InChI: InChI=1S/C18H17ClN2O2/c1-12-10-21-11-17(22)20-16-8-7-14(19)9-15(16)18(21,23-12)13-5-3-2-4-6-13/h2-9,12H,10-11H2,1H3,(H,20,22)
Instrument: LCMS-8040 coupled to Nexera XR (Shimadzu, Kyoto, Japan).
Instrument type: LC-ESI-QQ
Ms type: MS
Ion mode: NEGATIVE
Ionization: ESI
Column name: InertSustain C18 ID 2.1 microm, 2.1 x 100 mm (GL Science, Tokyo, Japan).
Retention time: 10.122, 10.197 min (broad two peaks)
m/z	relative intensity
157	28
201	38
229	24
239	21
241	37
243	22
265	94
271	23
279	21
283	88
284	34
293	26
297	29
305	22
311	24
313	110
325	28
327	999
328	183
329	340
330	59
335	20
337	21
339	25
351	22
361	21
373	42
395	23
403	31
407	21
411	36
415	20
433	22
