Mass spectrum: Azoxystrobin; LC-ESI-QTOF; MS2; [M+H]+; CID; CE 10V
Name: Azoxystrobin
Class: Non-natural product
Formula: C22H17N3O5
Exact mass: 403.116821
SMILES: CO/C=C(\C1=CC=CC=C1OC2=NC=NC(=C2)OC3=CC=CC=C3C#N)/C(=O)OC
InChI: InChI=1S/C22H17N3O5/c1-27-13-17(22(26)28-2)16-8-4-6-10-19(16)30-21-11-20(24-14-25-21)29-18-9-5-3-7-15(18)12-23/h3-11,13-14H,1-2H3/b17-13+
Instrument: X500R QTOF (AB Sciex LLC, MA, USA) coupled to ExionLC AD (AB Sciex LLC, MA, USA).
Instrument type: LC-ESI-QTOF
Ms type: MS2
Ion mode: POSITIVE
Collision energy: 10 V
Fragmentation mode: CID
Ionization: ESI
Column name: TSKgel ODS-100S 5 um, 2.1 mm Ã— 250 mm, TOSOH
Retention time: 14.1 min
Precursor m/z: 404.124098
Precursor type: [M+H]+
m/z	relative intensity
372.098	908
404.1263	999
