Mass spectrum: 3-Ethyl-N-(2-nitrophenyl)aniline; GC-EI-TOF; MS; POSITIVE; 70 V
Name: 3-Ethyl-N-(2-nitrophenyl)aniline
Class: Non-natural compound
Formula: C14H14N2O2
Exact mass: 242.105520
SMILES: [O-][N+](=O)c1ccccc1Nc1cccc(CC)c1
InChI: InChI=1S/C14H14N2O2/c1-2-11-6-5-7-12(10-11)15-13-8-3-4-9-14(13)16(17)18/h3-10,15H,2H2,1H3
Instrument: JMS-T100GCV (JEOL, Akishima, Japan) coupled to Agilent 7890A (Santa Clara, CA, USA) gas chromatograph.
Instrument type: GC-EI-TOF
Ms type: MS
Ion mode: POSITIVE
Ionization: EI
Column name: DB-5MS 122-5532 USA360633H (Agilent, Wilmington, USA) with the length 30.0 m, I.D. 0.25 mm, and thickness 0.25 micrometer.
Retention time: 11.56 min
m/z	relative intensity
27.025	51
27.996	3
28.02	6
29.041	44
30	19
38.017	8
39.025	85
40.031	9
41.04	19
42.042	2
50.017	36
51.025	101
51.071	1
52.031	29
53.04	37
54.043	3
55.02	5
55.056	5
57.035	8
62.017	11
63.025	83
63.061	1
63.091	1
64.032	40
65.04	71
66.046	13
67.055	6
69.029	1
69.528	3
70.53	5
71.538	6
74.017	9
75.025	24
76.032	46
76.532	6
77.04	281
77.537	11
78.046	64
79.056	84
80.058	10
81.035	5
81.071	8
82.033	2
82.532	4
83.045	2
83.538	18
84.04	7
84.541	3
87.025	5
88.031	6
89.04	79
89.538	15
90.042	74
90.544	20
91.054	60
91.096	1
92.054	17
93.064	6
94.077	3
95.05	3
95.538	7
96.041	3
96.543	4
97.045	4
100.03	2
101.04	12
102.047	25
103.055	55
104.056	16
105.046	11
106.054	11
107.054	10
108.058	2
109.066	9
113.04	10
114.046	11
115.056	36
116.054	18
117.059	11
118.058	13
119.062	12
120.082	13
121.087	3
122.074	3
125.04	3
126.048	12
127.055	33
128.057	29
129.06	13
130.066	14
131.063	21
132.069	23
133.075	5
134.049	9
135.055	3
137.04	2
138.047	5
139.056	69
140.054	60
141.061	19
142.066	7
143.068	8
144.072	5
145.078	5
146.051	2
147.057	4
150.048	5
151.055	25
152.063	81
153.066	38
154.067	59
155.072	29
156.072	30
157.077	49
158.083	15
159.089	3
160.065	14
161.069	4
163.056	4
164.054	13
165.065	25
166.067	138
167.074	477
167.714	2
168.079	319
168.655	2
169.08	155
169.636	2
169.718	1
170.083	37
171.092	21
172.097	6
176.057	2
177.06	9
178.067	43
178.194	1
179.072	56
179.2	3
180.082	463
180.666	2
181.085	211
181.702	2
182.086	131
182.646	1
182.699	1
182.758	1
183.074	80
184.075	28
185.072	29
186.077	8
190.066	6
191.074	25
192.08	37
192.205	1
193.08	114
194.093	69
195.103	117
196.107	57
197.108	146
198.112	42
199.088	12
200.092	3
205.077	11
206.085	22
207.093	77
208.099	83
209.107	47
210.093	18
211.096	8
212.123	4
213.067	33
214.072	10
223.088	4
224.094	7
225.102	105
226.106	25
227.095	4
241.098	6
242.106	999
242.825	3
243.11	337
244.114	42
244.489	2
245.116	4
