Mass spectrum: Aldicarb; LC-ESI-QTOF; MS2; [M+H]+; CID; CE 10V
Name: Aldicarb
Class: Non-natural product
Formula: C7H14N2O2S
Exact mass: 190.077599
SMILES: CC(C)(C=NOC(=O)NC)SC
InChI: InChI=1S/C7H14N2O2S/c1-7(2,12-4)5-9-11-6(10)8-3/h5H,1-4H3,(H,8,10)
Instrument: X500R QTOF (AB Sciex LLC, MA, USA) coupled to ExionLC AD (AB Sciex LLC, MA, USA).
Instrument type: LC-ESI-QTOF
Ms type: MS2
Ion mode: POSITIVE
Collision energy: 10 V
Fragmentation mode: CID
Ionization: ESI
Column name: TSKgel ODS-100S 5 um, 2.1 mm Ã— 250 mm, TOSOH
Retention time: 12.7 min
Precursor m/z: 191.084876
Precursor type: [M+H]+
m/z	relative intensity
70.0647	163
89.0421	768
116.0528	999
