Mass spectrum: Triazolam; LC-ESI-QQ; MS2; ESI; POSITIVE; CID; CE 50 V; [M+H]+
Name: Triazolam
Class: Non-natural product
Formula: C17H12Cl2N4
Exact mass: 342.04389
SMILES: CC1=NN=C2N1C3=C(C=C(C=C3)Cl)C(=NC2)C4=CC=CC=C4Cl
InChI: InChI=1S/C17H12Cl2N4/c1-10-21-22-16-9-20-17(12-4-2-3-5-14(12)19)13-8-11(18)6-7-15(13)23(10)16/h2-8H,9H2,1H3
Instrument: LCMS-8040 coupled to Nexera XR (Shimadzu, Kyoto, Japan).
Instrument type: LC-ESI-QQ
Ms type: MS2
Ion mode: POSITIVE
Collision energy: 50 V
Fragmentation mode: CID
Ionization: ESI
Column name: InertSustain C18 ID 2.1 microm, 2.1 x 100 mm (GL Science, Tokyo, Japan).
Retention time: 8.845 min
Precursor m/z: 343.05116
Precursor type: [M+H]+
m/z	relative intensity
39.2	10
42.3	66
57.2	39
66.3	85
75.4	39
77.3	28
96.4	19
100.3	50
101.2	35
102.2	101
103.2	132
111.2	202
112.2	19
115.1	46
115.8	14
126.1	34
127.2	40
128.1	22
129.2	59
130.0	34
136.0	31
137.1	45
138.1	178
140.2	14
144.1	29
150.1	16
151.1	18
152.2	23
162.2	12
163.2	39
164.3	20
165.1	148
169.2	19
176.1	62
177.1	172
179.0	19
186.2	28
190.2	62
191.1	58
198.1	29
199.1	18
202.2	42
203.1	168
204.1	295
205.1	199
206.0	15
212.1	15
213.9	11
216.1	45
217.2	98
218.1	98
219.2	12
223.2	12
224.1	53
225.1	11
227.1	19
230.0	13
230.9	25
233.2	29
239.1	999
240.2	13
245.0	53
249.2	24
251.2	10
252.2	96
253.1	64
257.9	12
260.9	13
265.0	16
273.0	12
278.1	27
279.1	51
280.3	17
287.3	21
289.1	12
307.7	28
315.1	78
343.1	12
