Mass spectrum: Carbamazepine; LC-ESI-QQ; MS; ESI; POSITIVE
Name: Carbamazepine
Class: Non-natural product
Formula: C15H12N2O
Exact mass: 236.094955
SMILES: C1=CC=C2C(=C1)C=CC3=CC=CC=C3N2C(=O)N
InChI: InChI=1S/C15H12N2O/c16-15(18)17-13-7-3-1-5-11(13)9-10-12-6-2-4-8-14(12)17/h1-10H,(H2,16,18)
Instrument: LCMS-8040 coupled to Nexera XR (Shimadzu, Kyoto, Japan).
Instrument type: LC-ESI-QQ
Ms type: MS
Ion mode: POSITIVE
Ionization: ESI
Column name: InertSustain C18 ID 2.1 microm, 2.1 x 100 mm (GL Science, Tokyo, Japan).
Retention time: 8.428 min
m/z	relative intensity
194.2	12
237.2	999
238.2	169
239.2	15
