Mass spectrum: (((4-Phenoxybutyl)thio)methyl)diphenylsilane; GC-EI-TOF; MS; POSITIVE; 70 V
Name: (((4-Phenoxybutyl)thio)methyl)diphenylsilane
Class: Non-natural compound
Formula: C23H26OSSi
Exact mass: 378.147363
SMILES: c1cccc(c1)[SiH](CSCCCCOc1ccccc1)c1ccccc1
InChI: InChI=1S/C23H26OSSi/c1-4-12-21(13-5-1)24-18-10-11-19-25-20-26(22-14-6-2-7-15-22)23-16-8-3-9-17-23/h1-9,12-17,26H,10-11,18-20H2
Instrument: JMS-T100GCV (JEOL, Akishima, Japan) coupled to Agilent 7890A (Santa Clara, CA, USA) gas chromatograph.
Instrument type: GC-EI-TOF
Ms type: MS
Ion mode: POSITIVE
Ionization: EI
Column name: HP-5 19091J-413 USD364547H (Agilent, Wilmington, USA) with the length 30.0 m, I.D. 0.32 mm, and thickness 0.25 micrometer.
Retention time: 13.40 min
m/z	relative intensity
27.024	13
28.006	51
28.031	6
29.039	29
31.99	20
39.024	34
40.031	5
41.04	36
42.046	2
43.001	5
43.055	4
44.981	24
45.988	18
46.996	15
50.017	5
51.024	26
52.031	3
52.986	39
53.04	15
53.988	3
54.047	24
55.001	6
55.019	4
55.055	128
56.062	14
58.996	9
60.004	28
61.012	99
61.05	1
61.074	1
62.015	4
63.024	6
64.031	3
65.04	81
65.105	1
66.047	16
67.001	7
67.056	16
68.063	27
69.071	8
73.012	4
74.02	10
74.973	6
75.027	7
76.032	5
76.986	4
77.04	208
77.993	3
78.046	23
79.001	35
79.056	37
80.005	4
80.06	3
81.017	5
85.012	6
86.02	2
87.028	76
88.033	7
89.043	34
90.047	6
91.056	267
91.196	2
92.06	22
93.02	22
93.07	4
94.043	98
95.049	14
101.044	7
102.051	42
103.002	23
103.059	83
104.007	6
104.062	8
105.017	366
106.019	42
106.076	2
107.051	120
108.054	9
115.056	6
117.018	7
117.072	4
118.024	5
119.033	34
119.087	5
120.058	66
121.012	16
121.057	8
122.017	3
123.027	2
128.064	4
129.018	15
129.071	3
130.024	3
131.033	13
131.087	4
132.059	3
133.066	3
134.018	2
135.027	4
136.989	23
137.993	4
139.02	4
143.033	4
145.05	3
147.083	22
148.09	90
148.188	1
149.097	32
149.997	3
150.102	4
151.005	50
151.105	1
152.012	51
152.064	16
153.014	13
153.07	6
154.012	6
154.08	4
155.033	32
156.035	6
157.048	7
159.063	2
165.021	10
165.072	31
166.078	8
167.031	6
167.087	13
168.041	2
168.092	2
169.049	4
172.072	3
177.02	2
179.034	8
180.042	38
181.049	285
181.319	5
182.052	54
183.065	999
183.548	2
183.733	4
184.067	176
184.707	2
185.064	44
185.712	1
186.067	5
191.036	3
193.049	15
194.054	6
195.065	151
196.071	111
197.079	337
197.754	2
198.081	63
198.711	1
199.062	42
199.172	1
200.062	7
201.06	3
205.054	4
207.055	7
209.046	4
211.059	19
212.062	6
213.022	4
213.073	6
214.028	3
215.036	21
216.038	5
217.033	2
227.037	6
228.041	2
229.052	80
229.173	1
230.056	20
231.048	9
232.055	2
241.053	2
243.035	3
257.081	3
271.098	2
275.09	82
275.229	1
276.095	28
277.094	7
285.114	645
285.857	2
285.955	2
286.117	154
287.112	67
288.114	12
289.108	4
290.115	6
301.11	3
322.086	5
330.146	3
331.148	2
363.124	22
364.127	7
365.122	3
378.147	81
379.15	25
380.146	10
381.146	2
