Mass spectrum: 6-(4-{[2-(decanoylamino)ethyl]amino}-4-oxobutanamido)-N,N-dimethylhexan-1-amine N-oxide; ESI-QTOF; MS2; ESI; [M+H]+; CE 60 V
Name: 6-(4-{[2-(decanoylamino)ethyl]amino}-4-oxobutanamido)-N,N-dimethylhexan-1-amine N-oxide
Name: AAO 9-2-2-6
Class: Non-natural product
Formula: C24H48N4O4
Exact mass: 456.367540
SMILES: O=C(NCCNC(=O)CCCCCCCCC)CCC(=O)NCCCCCC[N+]([O-])(C)C
InChI: InChI=1S/C24H48N4O4/c1-4-5-6-7-8-9-12-15-22(29)26-19-20-27-24(31)17-16-23(30)25-18-13-10-11-14-21-28(2,3)32/h4-21H2,1-3H3,(H,25,30)(H,26,29)(H,27,31)
Instrument: X500R QTOF (AB Sciex LLC, MA, USA)
Instrument type: ESI-QTOF
Ms type: MS2
Ion mode: POSITIVE
Collision energy: 60 V
Fragmentation mode: CID
Ionization: ESI
Precursor m/z: 457.374817 
Precursor type: [M+H]+
m/z	relative intensity
43.05392	12
44.04921	29
55.05398	51
57.06958	9
58.06492	141
71.08522	11
72.04414	24
81.06962	13
83.08525	30
84.04413	22
85.10089	10
95.08527	10
98.05980	23
98.09616	21
100.03909	176
100.11178	37
112.03909	19
114.12747	17
125.07073	92
126.05478	132
143.08132	91
182.11734	71
198.18490	999
