Mass spectrum: Clobazam; LC-ESI-QQ; MS2; ESI; POSITIVE; CE 50 V; [M+H]+
Name: Clobazam
Class: Non-natural product
Formula: C16H13ClN2O2
Exact mass: 300.06655
SMILES: CN1C(=O)CC(=O)N(C2=C1C=CC(=C2)Cl)C3=CC=CC=C3
InChI: InChI=1S/C16H13ClN2O2/c1-18-13-8-7-11(17)9-14(13)19(16(21)10-15(18)20)12-5-3-2-4-6-12/h2-9H,10H2,1H3
Instrument: LCMS-8040 coupled to Nexera XR (Shimadzu, Kyoto, Japan).
Instrument type: LC-ESI-QQ
Ms type: MS2
Ion mode: POSITIVE
Collision energy: 50 V
Ionization: ESI
Column name: InertSustain C18 ID 2.1 microm, 2.1 x 100 mm (GL Science, Tokyo, Japan).
Retention time: 8.818 min
Precursor m/z: 301.07383
Precursor type: [M+H]+
m/z	relative intensity
69	15
77	999
78	41
91	54
92	30
99	15
102	30
105	145
112	15
113	30
117	188
118	121
119	45
126	30
139	15
140	15
147	45
148	15
153	447
154	137
166	183
167	157
170	28
179	149
180	176
181	264
182	312
191	15
195	671
207	36
208	30
209	34
214	60
215	280
216	304
217	46
223	323
224	307
230	30
231	28
243	36
244	30
259	61
