Mass spectrum: Chloridazon; LC-ESI-QTOF; MS2; [M+H]+; CID; CE 60V
Name: Chloridazon
Class: Non-natural product
Formula: C10H8ClN3O
Exact mass: 221.03559
SMILES: C1=CC=C(C=C1)N2C(=O)C(=C(C=N2)N)Cl
InChI: InChI=1S/C10H8ClN3O/c11-9-8(12)6-13-14(10(9)15)7-4-2-1-3-5-7/h1-6H,12H2
Instrument: X500R QTOF (AB Sciex LLC, MA, USA) coupled to ExionLC AD (AB Sciex LLC, MA, USA).
Instrument type: LC-ESI-QTOF
Ms type: MS2
Ion mode: POSITIVE
Collision energy: 60 V
Fragmentation mode: CID
Ionization: ESI
Column name: TSKgel ODS-100S 5 um, 2.1 mm Ã— 250 mm, TOSOH
Retention time: 11.7 min
Precursor m/z: 222.042867
Precursor type: [M+H]+
m/z	relative intensity
39.0228	195
50.0148	51
51.0228	450
55.0289	64
65.0383	599
66.0211	229
73.9791	89
77.0385	999
87.9947	318
92.0493	162
93.0572	175
95.0489	85
100.99	178
104.0493	105
105.0445	89
146.0116	85
