Mass spectrum: Sulindac; LC-ESI-QQ; MS2; ESI; NEGATIVE; CID; CE 30 V; [M-HCO2]-
Name: Sulindac
Class: Non-natural product
Formula: C20H17FO3S
Exact mass: 356.088244
SMILES: CC\1=C(C2=C(/C1=C\C3=CC=C(C=C3)S(=O)C)C=CC(=C2)F)CC(=O)O
InChI: InChI=1S/C20H17FO3S/c1-12-17(9-13-3-6-15(7-4-13)25(2)24)16-8-5-14(21)10-19(16)18(12)11-20(22)23/h3-10H,11H2,1-2H3,(H,22,23)/b17-9-
Instrument: LCMS-8040 coupled to Nexera XR (Shimadzu, Kyoto, Japan).
Instrument type: LC-ESI-QQ
Ms type: MS2
Ion mode: NEGATIVE
Collision energy: 30 V
Fragmentation mode: CID
Ionization: ESI
Column name: InertSustain C18 ID 2.1 microm, 2.1 x 100 mm (GL Science, Tokyo, Japan).
Retention time: 7.915 min
Precursor m/z: 311.091137
Precursor type: [M-HCO2]-
m/z	relative intensity
32.3	21
33.1	21
93.1	88
105.3	21
124.1	54
136.1	229
137.0	541
148.6	21
159.2	11
170.9	21
191.0	72
220.1	21
221.0	11
222.1	21
233.0	19
235.2	11
246.3	21
247.2	28
248.0	149
251.0	55
261.1	459
262.1	298
263.1	805
264.1	797
266.7	33
274.2	21
275.0	49
276.2	11
278.3	17
279.1	77
280.2	228
281.1	313
290.2	203
296.1	999
308.8	21
