Mass spectrum: Spiperone; LC-ESI-QQ; MS; ESI; NEGATIVE
Name: Spiperone
Class: Non-natural product
Formula: C23H26FN3O2
Exact mass: 395.200893
SMILES: C1CN(CCC12C(=O)NCN2C3=CC=CC=C3)CCCC(=O)C4=CC=C(C=C4)F
InChI: InChI=1S/C23H26FN3O2/c24-19-10-8-18(9-11-19)21(28)7-4-14-26-15-12-23(13-16-26)22(29)25-17-27(23)20-5-2-1-3-6-20/h1-3,5-6,8-11H,4,7,12-17H2,(H,25,29)
Instrument: LCMS-8040 coupled to Nexera XR (Shimadzu, Kyoto, Japan).
Instrument type: LC-ESI-QQ
Ms type: MS
Ion mode: NEGATIVE
Ionization: ESI
Column name: InertSustain C18 ID 2.1 microm, 2.1 x 100 mm (GL Science, Tokyo, Japan).
Retention time: 8.173 min
m/z	relative intensity
241.9	12
394.2	999
395.2	282
396.2	50
440.3	64
441.2	26
462.3	16
478.1	10
