Mass spectrum: Quazepam; LC-ESI-QQ; MS2; ESI; POSITIVE; CE 50 V; [M+H]+
Name: Quazepam
Class: Non-natural product
Formula: C17H11ClF4N2S
Exact mass: 386.02675
SMILES: C1C(=S)N(C2=C(C=C(C=C2)Cl)C(=N1)C3=CC=CC=C3F)CC(F)(F)F
InChI: InChI=1S/C17H11ClF4N2S/c18-10-5-6-14-12(7-10)16(11-3-1-2-4-13(11)19)23-8-15(25)24(14)9-17(20,21)22/h1-7H,8-9H2
Instrument: LCMS-8040 coupled to Nexera XR (Shimadzu, Kyoto, Japan).
Instrument type: LC-ESI-QQ
Ms type: MS2
Ion mode: POSITIVE
Collision energy: 50 V
Ionization: ESI
Column name: InertSustain C18 ID 2.1 microm, 2.1 x 100 mm (GL Science, Tokyo, Japan).
Retention time: 10.211 min
Precursor m/z: 387.03403
Precursor type: [M+H]+
m/z	relative intensity
45	14
75	14
95	14
111	17
112	33
122	51
136	21
137	106
138	32
139	14
147	11
148	57
151	14
155	21
157	43
163	101
164	44
180	14
183	278
192	25
201	65
203	14
206	14
208	17
209	19
210	14
211	36
217	71
218	45
223	150
224	114
225	14
230	14
231	51
232	26
234	14
236	17
237	71
238	122
239	70
244	215
245	73
247	14
248	14
249	46
250	73
251	36
257	178
258	999
259	65
263	14
266	19
270	99
273	354
274	333
275	14
278	214
283	29
285	45
288	22
292	66
293	110
294	41
303	124
304	29
311	29
313	204
319	22
341	14
352	58
354	49
