Mass spectrum: Dibutyl[(pentylthio)methyl]silane; GC-EI-TOF; MS; POSITIVE; 70 V
Name: Dibutyl[(pentylthio)methyl]silane
Class: Non-natural compound
Formula: C14H32SSi
Exact mass: 260.199398
SMILES: CCCC[SiH](CSCCCCC)CCCC
InChI: InChI=1S/C14H32SSi/c1-4-7-10-11-15-14-16(12-8-5-2)13-9-6-3/h16H,4-14H2,1-3H3
Instrument: JMS-T100GCV (JEOL, Akishima, Japan) coupled to Agilent 7890A (Santa Clara, CA, USA) gas chromatograph.
Instrument type: GC-EI-TOF
Ms type: MS
Ion mode: POSITIVE
Ionization: EI
Column name: HP-5 19091J-413 USD364547H (Agilent, Wilmington, USA) with the length 30.0 m, I.D. 0.32 mm, and thickness 0.25 micrometer.
Retention time: 9.32 min
m/z	relative intensity
27.023	102
27.068	1
27.977	12
28.006	39
28.031	17
28.985	13
29.039	267
30.043	6
31.001	34
31.99	15
39.024	49
40.031	6
41.039	301
41.091	3
41.13	2
41.993	8
42.047	45
43.001	136
43.055	582
43.339	1
44.008	54
44.058	20
44.98	12
45.016	245
45.108	1
45.988	9
46.016	15
46.996	15
47.013	8
52.985	3
53.04	16
54.047	8
55.001	27
55.055	153
56.008	12
56.061	14
57.016	90
57.071	15
58.024	97
58.077	2
58.996	6
59.032	649
59.375	2
59.411	2
59.949	18
60.004	7
60.033	43
60.957	67
61.012	46
61.073	1
61.962	8
62.017	3
62.973	42
63.008	3
63.972	3
64.969	3
67.001	4
67.055	9
68.063	7
69.017	10
69.071	110
69.133	1
70.024	16
70.077	18
71.032	73
71.086	77
71.157	1
72.04	148
72.09	5
72.957	16
73.047	93
73.087	2
73.12	1
73.965	9
74.044	8
74.973	147
75.04	5
75.98	87
76.988	876
77.16	2
77.421	2
77.717	2
77.989	62
78.985	67
79.057	2
79.986	4
81.016	6
82.024	3
83.032	49
83.087	5
84.038	14
85.048	172
86.055	113
86.973	3
87.063	149
88.064	13
88.989	22
89.061	5
89.996	58
91.004	160
92.009	29
93.004	13
94.009	2
95.032	10
96.037	2
97.048	42
98.053	10
99.063	117
99.145	2
100.07	54
100.989	6
101.079	87
101.163	1
101.994	2
102.08	8
103.004	49
103.059	9
104.011	26
105.02	29
106.027	17
107.028	3
111.064	5
112.071	3
113.079	21
114.087	54
115.005	5
115.091	11
116.086	2
117.02	33
117.075	19
118.025	7
118.082	59
119.035	58
119.085	6
120.037	6
120.078	3
121.032	5
127.095	5
128.102	48
129.021	7
129.105	6
131.035	125
131.305	2
132.04	25
133.051	999
133.563	3
134.058	496
134.491	2
135.06	144
136.056	41
137.061	9
140.102	5
141.11	9
142.118	52
143.037	3
143.125	24
144.123	4
145.051	190
145.321	7
146.053	25
147.067	429
147.308	1
148.071	88
149.065	37
150.069	6
156.134	22
157.14	9
159.067	2
161.083	7
162.089	2
173.082	3
175.098	88
176.1	12
177.096	8
189.114	353
190.119	138
191.116	40
191.256	1
192.117	11
199.098	2
201.114	433
201.383	27
201.619	2
201.725	2
202.116	70
202.385	5
202.737	1
202.838	1
203.129	896
203.836	3
204.134	242
204.848	2
205.129	83
206.132	17
207.127	2
231.161	44
232.163	8
233.159	4
245.176	34
246.179	7
247.175	3
259.191	11
260.199	203
261.202	42
262.198	19
263.199	3
