Mass spectrum: Clotiazepam; LC-ESI-QQ; MS2; ESI; POSITIVE; CE 30 V; [M+H]+
Name: Clotiazepam
Class: Non-natural product
Formula: C16H15ClN2OS
Exact mass: 318.05935
SMILES: CCC1=CC2=C(S1)N(C(=O)CN=C2C3=CC=CC=C3Cl)C
InChI: InChI=1S/C16H15ClN2OS/c1-3-10-8-12-15(11-6-4-5-7-13(11)17)18-9-14(20)19(2)16(12)21-10/h4-8H,3,9H2,1-2H3
Instrument: LCMS-8040 coupled to Nexera XR (Shimadzu, Kyoto, Japan).
Instrument type: LC-ESI-QQ
Ms type: MS2
Ion mode: POSITIVE
Collision energy: 30 V
Ionization: ESI
Column name: InertSustain C18 ID 2.1 microm, 2.1 x 100 mm (GL Science, Tokyo, Japan).
Retention time: 9.928 min
Precursor m/z: 319.06663
Precursor type: [M+H]+
m/z	relative intensity
74	302
79	16
80	15
106	13
108	15
111	10
113	132
119	12
120	16
121	51
125	94
126	12
138	62
139	25
152	28
154	999
155	56
156	19
165	47
166	35
167	67
168	93
177	99
181	22
182	60
183	136
186	12
190	69
191	17
203	67
206	13
210	19
212	11
213	17
216	13
218	302
224	52
225	59
227	63
228	18
229	24
233	57
235	13
240	14
241	24
243	25
249	27
250	170
255	23
257	44
258	35
260	42
262	62
264	19
275	112
276	21
291	567
319	210
