Mass spectrum: Nitrazepam; LC-ESI-QQ; MS2; ESI; POSITIVE; CID; CE 30 V; [M+H]+
Name: Nitrazepam
Class: Non-natural product
Formula: C15H11N3O3
Exact mass: 281.08003
SMILES: C1C(=O)NC2=C(C=C(C=C2)[N+](=O)[O-])C(=N1)C3=CC=CC=C3
InChI: InChI=1S/C15H11N3O3/c19-14-9-16-15(10-4-2-1-3-5-10)12-8-11(18(20)21)6-7-13(12)17-14/h1-8H,9H2,(H,17,19)
Instrument: LCMS-8040 coupled to Nexera XR (Shimadzu, Kyoto, Japan).
Instrument type: LC-ESI-QQ
Ms type: MS2
Ion mode: POSITIVE
Collision energy: 30 V
Fragmentation mode: CID
Ionization: ESI
Column name: InertSustain C18 ID 2.1 microm, 2.1 x 100 mm (GL Science, Tokyo, Japan).
Retention time: 8.592 min
Precursor m/z: 282.08731
Precursor type: [M+H]+
m/z	relative intensity
91.3	29
93.2	20
104.2	19
105.3	21
118.1	11
130.2	48
133.2	13
158.2	18
168.3	15
176.2	23
179.2	21
180.2	273
191.2	34
192.2	11
193.1	21
195.3	12
196.2	22
206.1	22
207.1	286
208.2	77
235.2	60
236.2	999
251.2	19
282.1	60
