Mass spectrum: Clobazam; LC-ESI-QQ; MS2; ESI; POSITIVE; CE 30 V; [M+H]+
Name: Clobazam
Class: Non-natural product
Formula: C16H13ClN2O2
Exact mass: 300.06655
SMILES: CN1C(=O)CC(=O)N(C2=C1C=CC(=C2)Cl)C3=CC=CC=C3
InChI: InChI=1S/C16H13ClN2O2/c1-18-13-8-7-11(17)9-14(13)19(16(21)10-15(18)20)12-5-3-2-4-6-12/h2-9H,10H2,1H3
Instrument: LCMS-8040 coupled to Nexera XR (Shimadzu, Kyoto, Japan).
Instrument type: LC-ESI-QQ
Ms type: MS2
Ion mode: POSITIVE
Collision energy: 30 V
Ionization: ESI
Column name: InertSustain C18 ID 2.1 microm, 2.1 x 100 mm (GL Science, Tokyo, Japan).
Retention time: 8.818 min
Precursor m/z: 301.07383
Precursor type: [M+H]+
m/z	relative intensity
77	14
92	10
105	137
118	15
153	150
181	86
182	39
195	25
202	20
216	122
217	20
223	52
224	259
231	10
244	20
259	999
284	20
301	22
