Mass spectrum: Estazolam; LC-ESI-QQ; MS2; ESI; POSITIVE; CE 50 V; [M+H]+
Name: Estazolam
Class: Non-natural product
Formula: C16H11ClN4
Exact mass: 294.06721
SMILES: C1C2=NN=CN2C3=C(C=C(C=C3)Cl)C(=N1)C4=CC=CC=C4
InChI: InChI=1S/C16H11ClN4/c17-12-6-7-14-13(8-12)16(11-4-2-1-3-5-11)18-9-15-20-19-10-21(14)15/h1-8,10H,9H2
Instrument: LCMS-8040 coupled to Nexera XR (Shimadzu, Kyoro, Japan).
Instrument type: LC-ESI-QQ
Ms type: MS2
Ion mode: POSITIVE
Collision energy: 50 V
Ionization: ESI
Column name: InertSustain C18 ID 2.1 microm, 2.1 x 100 mm (GL Science, Tokyo, Japan).
Retention time: 8.765 min
Precursor m/z: 295.07449
Precursor type: [M+H]+
m/z	relative intensity
75	11
77	69
89	36
91	18
102	37
103	21
104	19
111	220
116	11
127	17
128	18
129	73
136	26
138	57
151	171
152	80
153	21
157	16
163	67
164	15
165	30
176	30
177	67
178	40
188	19
189	12
190	84
203	33
205	999
227	12
231	32
239	89
240	60
241	11
267	44
295	16
