Mass spectrum: Clofedanol; LC-ESI-QQ; MS; ESI; POSITIVE
Name: Clofedanol
Class: Non-natural product
Formula: C17H20ClNO
Exact mass: 289.123338
SMILES: CN(C)CCC(C1=CC=CC=C1)(C2=CC=CC=C2Cl)O
InChI: InChI=1S/C17H20ClNO/c1-19(2)13-12-17(20,14-8-4-3-5-9-14)15-10-6-7-11-16(15)18/h3-11,20H,12-13H2,1-2H3
Instrument: LCMS-8040 coupled to Nexera XR (Shimadzu, Kyoto, Japan).
Instrument type: LC-ESI-QQ
Ms type: MS
Ion mode: POSITIVE
Ionization: ESI
Column name: InertSustain C18 ID 2.1 microm, 2.1 x 100 mm (GL Science, Tokyo, Japan).
Retention time: 7.934 min
m/z	relative intensity
122.2	35
123.2	17
181.2	10
215.2	17
290.2	999
291.2	175
292.2	339
293.2	68
