Mass spectrum: 4-(4-{[2-(tetradecanoylamino)ethyl]amino}-4-oxobutanamido)-N,N-dimethylbutan-1-amine N-oxide; ESI-QTOF; MS2; ESI; [M+H]+; CE 40 V
Name: 4-(4-{[2-(tetradecanoylamino)ethyl]amino}-4-oxobutanamido)-N,N-dimethylbutan-1-amine N-oxide
Name: AAO 13-2-2-4
Class: Non-natural product
Formula: C26H52N4O4
Exact mass: 484.398840
SMILES: O=C(NCCNC(=O)CCCCCCCCCCCCC)CCC(=O)NCCCC[N+]([O-])(C)C
InChI: InChI=1S/C26H52N4O4/c1-4-5-6-7-8-9-10-11-12-13-14-17-24(31)28-21-22-29-26(33)19-18-25(32)27-20-15-16-23-30(2,3)34/h4-23H2,1-3H3,(H,27,32)(H,28,31)(H,29,33)
Instrument: X500R QTOF (AB Sciex LLC, MA, USA)
Instrument type: ESI-QTOF
Ms type: MS2
Ion mode: POSITIVE
Collision energy: 40 V
Fragmentation mode: CID
Ionization: ESI
Precursor m/z: 485.406117 
Precursor type: [M+H]+
m/z	relative intensity
72.08059	54
100.03915	108
112.03917	33
125.07074	45
126.05484	19
142.09739	28
143.08142	84
154.08624	999
171.11269	71
254.24774	730
271.27424	45
353.27977	80
424.35316	189
485.40593	184
