Mass spectrum: Fluazifop; LC-ESI-QTOF; MS2; [M+H]+; CID; CE 10V
Name: Fluazifop
Class: Non-natural product
Formula: C15H12F3NO4
Exact mass: 327.071842
SMILES: CC(C(=O)O)OC1=CC=C(C=C1)OC2=NC=C(C=C2)C(F)(F)F
InChI: InChI=1S/C15H12F3NO4/c1-9(14(20)21)22-11-3-5-12(6-4-11)23-13-7-2-10(8-19-13)15(16,17)18/h2-9H,1H3,(H,20,21)
Instrument: X500R QTOF (AB Sciex LLC, MA, USA) coupled to ExionLC AD (AB Sciex LLC, MA, USA).
Instrument type: LC-ESI-QTOF
Ms type: MS2
Ion mode: POSITIVE
Collision energy: 10 V
Fragmentation mode: CID
Ionization: ESI
Column name: AQ-C18HP 3 microm, 2.1 mm Ã— 150 mm (GL Science, Tokyo, Japan).
Retention time: 32.5 min
Precursor m/z: 328.079119
Precursor type: [M+H]+
m/z	relative intensity
282.0732	64
328.0782	999
