Mass spectrum: Fenoxaprop-ethyl; LC-ESI-QTOF; MS2; [M+H]+; CID; CE 50V
Name: Fenoxaprop-ethyl
Class: Non-natural product
Formula: C18H16ClNO5
Exact mass: 361.0717
SMILES: CCOC(=O)C(C)OC1=CC=C(C=C1)OC2=NC3=C(O2)C=C(C=C3)Cl
InChI: InChI=1S/C18H16ClNO5/c1-3-22-17(21)11(2)23-13-5-7-14(8-6-13)24-18-20-15-9-4-12(19)10-16(15)25-18/h4-11H,3H2,1-2H3
Instrument: X500R QTOF (AB Sciex LLC, MA, USA) coupled to ExionLC AD (AB Sciex LLC, MA, USA).
Instrument type: LC-ESI-QTOF
Ms type: MS2
Ion mode: POSITIVE
Collision energy: 50 V
Fragmentation mode: CID
Ionization: ESI
Column name: TSKgel ODS-100S 5 um, 2.1 mm Ã— 250 mm, TOSOH
Retention time: 16.1 min
Precursor m/z: 362.078977
Precursor type: [M+H]+
m/z	relative intensity
43.0177	119
65.0383	186
75.0226	54
77.0383	467
79.054	69
91.0538	999
92.0254	96
93.0697	272
94.0411	91
103.0539	696
107.0488	67
119.0488	342
120.0568	152
121.0644	678
139.9896	309
164.0491	237
165.057	520
167.9845	132
174.0102	104
180.0804	101
182.0597	176
188.0258	139
200.0261	194
216.0205	206
217.0287	207
242.0365	211
244.0158	278
260.0473	147
