Mass spectrum: Acetazolamide; LC-ESI-QQ; MS2; ESI; NEGATIVE; CID; CE 10 V; [M-H]-
Name: Acetazolamide
Class: Non-natural product
Formula: C4H6N4O3S2
Exact mass: 221.988117
SMILES: CC(=O)NC1=NN=C(S1)S(=O)(=O)N
InChI: InChI=1S/C4H6N4O3S2/c1-2(9)6-3-7-8-4(12-3)13(5,10)11/h1H3,(H2,5,10,11)(H,6,7,9)
Instrument: LCMS-8040 coupled to Nexera XR (Shimadzu, Kyoto, Japan).
Instrument type: LC-ESI-QQ
Ms type: MS2
Ion mode: NEGATIVE
Collision energy: 10 V
Fragmentation mode: CID
Ionization: ESI
Column name: InertSustain C18 ID 2.1 microm, 2.1 x 100 mm (GL Science, Tokyo, Japan).
Retention time: 4.122 min
Precursor m/z: 220.98084
Precursor type: [M-H]-
m/z	relative intensity
58.1	41
80.1	15
83.1	107
221.0	999
