Mass spectrum: Chlorzoxazone; LC-ESI-QQ; MS; ESI; NEGATIVE
Name: Chlorzoxazone
Class: Non-natural product
Formula: C7H4ClNO2
Exact mass: 168.993053
SMILES: C1=CC2=C(C=C1Cl)NC(=O)O2
InChI: InChI=1S/C7H4ClNO2/c8-4-1-2-6-5(3-4)9-7(10)11-6/h1-3H,(H,9,10)
Instrument: LCMS-8040 coupled to Nexera XR (Shimadzu, Kyoto, Japan).
Instrument type: LC-ESI-QQ
Ms type: MS
Ion mode: NEGATIVE
Ionization: ESI
Column name: InertSustain C18 ID 2.1 microm, 2.1 x 100 mm (GL Science, Tokyo, Japan).
Retention time: 8.312 min
m/z	relative intensity
167.9	999
169.9	334
171.0	27
