Mass spectrum: 10-Allylphenanthrene-9-carbonitrile; GC-EI-TOF; MS; POSITIVE; 70 V
Name: 10-Allylphenanthrene-9-carbonitrile
Class: Non-natural compound
Formula: C18H13N
Exact mass: 243.104795
SMILES: N#Cc1c2ccccc2c2ccccc2c1CC=C
InChI: InChI=1S/C18H13N/c1-2-7-13-14-8-3-4-9-15(14)16-10-5-6-11-17(16)18(13)12-19/h2-6,8-11H,1,7H2
Instrument: JMS-T100GCV (JEOL, Akishima, Japan) coupled to Agilent 7890A (Santa Clara, CA, USA) gas chromatograph.
Instrument type: GC-EI-TOF
Ms type: MS
Ion mode: POSITIVE
Ionization: EI
Column name: HP-5 19091J-413 USD364547H (Agilent, Wilmington, USA) with the length 30.0 m, I.D. 0.32 mm, and thickness 0.25 micrometer.
Retention time: 11.44 min
m/z	relative intensity
27.024	15
28.007	14
31.991	7
39.025	21
41.04	5
50.017	6
51.025	11
52.032	2
62.017	7
63.025	21
64.03	2
74.017	12
75.025	15
76.031	7
77.04	5
81.025	4
81.529	13
86.017	8
87.025	20
87.528	2
88.031	10
89.04	6
93.025	5
93.529	31
94.032	22
94.536	49
95.039	14
95.539	5
98.017	7
99.024	11
99.529	5
100.032	33
100.536	15
101.039	8
102.046	3
105.529	15
106.032	20
106.536	65
106.606	1
107.04	47
107.544	64
108.048	42
108.548	12
110.017	5
111.024	6
112.026	4
113.038	10
113.538	5
114.042	31
114.543	5
115.056	6
119.538	10
120.041	7
120.546	91
120.611	2
121.049	32
121.553	23
122.018	3
122.055	4
123.024	4
124.029	3
125.04	3
126.048	8
127.052	3
135.024	2
137.04	8
138.042	5
139.056	11
140.052	7
149.04	10
150.048	25
151.054	14
152.062	10
161.04	10
162.047	14
163.056	48
164.057	24
165.071	33
166.074	6
173.039	3
174.048	24
175.052	27
176.061	30
177.061	19
178.073	4
185.04	6
186.047	14
187.056	74
187.179	2
188.059	62
188.185	2
189.07	141
190.068	94
191.072	14
198.048	5
199.052	13
200.062	40
201.066	82
202.076	68
202.201	2
203.082	62
204.085	10
210.044	3
211.055	20
212.054	34
213.069	88
213.196	2
214.068	150
215.086	401
215.743	1
215.812	1
216.088	162
217.094	34
218.099	4
224.055	2
225.059	14
226.067	27
227.074	196
227.204	5
227.282	1
228.081	583
228.824	2
228.864	1
229.085	101
230.088	9
230.24	2
236.051	4
237.057	3
238.066	34
239.072	13
240.082	139
240.212	3
241.089	142
241.221	4
241.301	1
242.097	338
242.227	9
242.408	1
243.105	999
243.88	3
244.108	190
244.947	1
245.112	17
246.118	2
