Mass spectrum: Flutoprazepam; LC-ESI-QQ; MS2; ESI; POSITIVE; CID; CE 40 V; [M+H]+
Name: Flutoprazepam
Class: Non-natural product
Formula: C19H16ClFN2O
Exact mass: 342.093511
SMILES: C1CC1CN2C(=O)CN=C(C3=C2C=CC(=C3)Cl)C4=CC=CC=C4F
InChI: InChI=1S/C19H16ClFN2O/c20-13-7-8-17-15(9-13)19(14-3-1-2-4-16(14)21)22-10-18(24)23(17)11-12-5-6-12/h1-4,7-9,12H,5-6,10-11H2
Instrument: LCMS-8040 coupled to Nexera XR (Shimadzu, Kyoto, Japan).
Instrument type: LC-ESI-QQ
Ms type: MS2
Ion mode: POSITIVE
Collision energy: 40 V
Fragmentation mode: CID
Ionization: ESI
Column name: InertSustain C18 ID 2.1 microm, 2.1 x 100 mm (GL Science, Tokyo, Japan).
Retention time: 10.152 min
Precursor m/z: 343.100788
Precursor type: [M+H]+
m/z	relative intensity
39.3	16
41.3	10
55.2	171
105.1	34
106.3	17
109.2	111
111.2	19
113.2	26
117.2	23
122.2	14
123.2	39
124.3	47
129.2	15
130.3	24
133.3	25
134.2	29
136.2	15
138.2	39
140.1	999
150.2	39
158.2	46
162.2	11
165.1	266
166.1	97
168.2	18
179.3	17
183.1	17
198.2	12
205.2	40
206.1	41
207.0	20
209.0	26
211.2	159
214.1	161
216.2	18
217.1	11
218.1	11
226.2	523
227.2	13
230.2	10
232.1	37
241.1	44
245.1	73
246.2	17
251.2	20
254.1	21
255.2	14
259.0	55
260.2	49
261.2	18
271.3	14
289.1	432
