Mass spectrum: Rilmazafone; LC-ESI-QQ; MS2; ESI; POSITIVE; CID; CE 40 V; [M+H]+
Name: Rilmazafone
Class: Non-natural product
Formula: C21H20Cl2N6O3
Exact mass: 474.097371
SMILES: CN(C)C(=O)C1=NN(C(=N1)CNC(=O)CN)C2=C(C=C(C=C2)Cl)C(=O)C3=CC=CC=C3Cl
InChI: InChI=1S/C21H20Cl2N6O3/c1-28(2)21(32)20-26-17(11-25-18(30)10-24)29(27-20)16-8-7-12(22)9-14(16)19(31)13-5-3-4-6-15(13)23/h3-9H,10-11,24H2,1-2H3,(H,25,30)
Instrument: LCMS-8040 coupled to Nexera XR (Shimadzu, Kyoto, Japan).
Instrument type: LC-ESI-QQ
Ms type: MS2
Ion mode: POSITIVE
Ionization: ESI
Collision energy: 40 V
Fragmentation mode: CID
Column name: InertSustain C18 ID 2.1 microm, 2.1 x 100 mm (GL Science, Tokyo, Japan).
Retention time: 8.244 min
Precursor m/z: 475.104648
Precursor type: [M+H]+
m/z	relative intensity
44.3	25
72.3	51
102.3	21
123.9	11
124.9	11
139.3	21
190.9	11
194.2	11
234.3	21
254.8	43
273.2	64
274.9	65
277.2	43
291.2	58
299.8	21
308.1	41
316.3	21
327.0	11
344.1	999
346.2	11
355.9	100
357.7	11
373.3	11
387.6	21
389.2	398
401.1	45
418.1	50
458.2	17
