Mass spectrum: Fenoxaprop-ethyl; LC-ESI-QTOF; MS2; [M+H]+; CID; CE 40V
Name: Fenoxaprop-ethyl
Class: Non-natural product
Formula: C18H16ClNO5
Exact mass: 361.0717
SMILES: CCOC(=O)C(C)OC1=CC=C(C=C1)OC2=NC3=C(O2)C=C(C=C3)Cl
InChI: InChI=1S/C18H16ClNO5/c1-3-22-17(21)11(2)23-13-5-7-14(8-6-13)24-18-20-15-9-4-12(19)10-16(15)25-18/h4-11H,3H2,1-2H3
Instrument: X500R QTOF (AB Sciex LLC, MA, USA) coupled to ExionLC AD (AB Sciex LLC, MA, USA).
Instrument type: LC-ESI-QTOF
Ms type: MS2
Ion mode: POSITIVE
Collision energy: 40 V
Fragmentation mode: CID
Ionization: ESI
Column name: TSKgel ODS-100S 5 um, 2.1 mm Ã— 250 mm, TOSOH
Retention time: 16.1 min
Precursor m/z: 362.078977
Precursor type: [M+H]+
m/z	relative intensity
43.0176	89
65.0384	83
77.0386	231
91.054	914
93.0698	222
94.0412	72
103.0541	571
119.0489	733
120.0568	267
121.0645	999
139.9897	217
164.0497	81
165.0574	279
167.9848	311
182.0602	117
200.0264	141
209.0473	120
209.083	199
216.0212	145
217.0293	166
232.0525	236
238.0502	323
242.037	456
244.016	448
244.0496	217
260.0475	671
261.0193	301
262.0269	158
270.032	248
288.0422	933
