Mass spectrum: Amoxapine; LC-ESI-QQ; MS2; ESI; POSITIVE; CID; CE 40 V; [M+H]+
Name: Amoxapine
Class: Non-natural product
Formula: C17H16ClN3O
Exact mass: 313.098178
SMILES: C1CN(CCN1)C2=NC3=CC=CC=C3OC4=C2C=C(C=C4)Cl
InChI: InChI=1S/C17H16ClN3O/c18-12-5-6-15-13(11-12)17(21-9-7-19-8-10-21)20-14-3-1-2-4-16(14)22-15/h1-6,11,19H,7-10H2
Instrument: LCMS-8040 coupled to Nexera XR (Shimadzu, Kyoto, Japan).
Instrument type: LC-ESI-QQ
Ms type: MS2
Ion mode: POSITIVE
Collision energy: 40 V
Fragmentation mode: CID
Ionization: ESI
Column name: InertSustain C18 ID 2.1 microm, 2.1 x 100 mm (GL Science, Tokyo, Japan).
Retention time: 8.762 min
Precursor m/z: 314.105455
Precursor type: [M+H]+
m/z	relative intensity
28.4	17
41.3	27
42.3	69
43.3	59
44.3	38
65.2	14
68.2	19
70.3	350
71.3	22
77.2	31
84.0	17
85.2	13
104.2	38
106.1	10
117.1	15
118.2	67
119.3	14
126.1	14
149.1	13
152.1	22
164.1	119
165.1	35
167.3	12
173.1	19
174.1	14
179.0	22
180.2	34
192.2	108
193.1	999
200.0	150
206.2	18
207.2	50
208.1	22
209.2	10
214.3	18
215.1	28
219.4	11
228.1	295
230.1	11
235.1	80
242.2	17
243.2	13
244.0	12
245.1	10
253.0	25
254.1	67
261.1	10
268.9	12
271.2	395
295.2	22
297.0	59
313.6	15
