Mass spectrum: Nimetazepam; LC-ESI-QQ; MS2; ESI; POSITIVE; CID; CE 40 V; [M+H]+
Name: Nimetazepam
Class: Non-natural product
Formula: C16H13N3O3
Exact mass: 295.09568
SMILES: CN1C(=O)CN=C(C2=C1C=CC(=C2)[N+](=O)[O-])C3=CC=CC=C3
InChI: InChI=1S/C16H13N3O3/c1-18-14-8-7-12(19(21)22)9-13(14)16(17-10-15(18)20)11-5-3-2-4-6-11/h2-9H,10H2,1H3
Instrument: LCMS-8040 coupled to Nexera XR (Shimadzu, Kyoto, Japan).
Instrument type: LC-ESI-QQ
Ms type: MS2
Ion mode: POSITIVE
Collision energy: 40 V
Fragmentation mode: CID
Ionization: ESI
Column name: InertSustain C18 ID 2.1 microm, 2.1 x 100 mm (GL Science, Tokyo, Japan).
Retention time: 8.827 min
Precursor m/z: 296.102957
Precursor type: [M+H]+
m/z	relative intensity
42.2	17
58.4	14
78.4	15
89.1	30
90.3	52
91.2	130
104.2	54
105.2	19
107.3	15
116.2	48
117.2	21
118.2	144
119.2	155
120.4	11
129.2	26
131.2	14
132.2	31
133.2	11
143.1	75
144.2	36
145.3	13
146.2	18
147.2	46
152.2	162
153.1	24
154.0	23
164.2	49
165.1	341
166.1	53
167.2	66
177.2	20
179.2	142
180.2	219
181.2	42
182.2	22
190.2	109
191.2	48
192.2	252
193.2	219
194.2	290
195.1	37
196.1	12
201.1	16
204.2	189
205.1	84
206.2	206
207.2	133
208.2	10
209.2	27
219.2	34
221.1	999
222.2	123
237.1	13
239.1	12
249.1	30
250.2	315
252.2	11
296.2	35
