Mass spectrum: Medazepam; LC-ESI-QQ; MS2; ESI; POSITIVE; CID; CE 40 V; [M+H]+
Name: Medazepam
Class: Non-natural product
Formula: C16H15ClN2
Exact mass: 270.092368
SMILES: CN1CCN=C(C2=C1C=CC(=C2)Cl)C3=CC=CC=C3
InChI: InChI=1S/C16H15ClN2/c1-19-10-9-18-16(12-5-3-2-4-6-12)14-11-13(17)7-8-15(14)19/h2-8,11H,9-10H2,1H3
Instrument: LCMS-8040 coupled to Nexera XR (Shimadzu, Kyoto, Japan).
Instrument type: LC-ESI-QQ
Ms type: MS2
Ion mode: POSITIVE
Ionization: ESI
Collision energy: 40 V
Fragmentation mode: CID
Column name: InertSustain C18 ID 2.1 microm, 2.1 x 100 mm (GL Science, Tokyo, Japan).
Retention time: 10.841 min
Precursor m/z: 271.099645
Precursor type: [M+H]+
m/z	relative intensity
30.3	42
42.3	16
44.3	75
56.3	11
65.2	41
89.3	21
91.2	999
106.3	11
117.2	119
125.1	36
128.1	14
130.1	56
131.2	29
138.2	23
152.1	29
164.1	40
165.1	402
178.1	40
179.1	68
180.1	26
192.1	62
193.1	260
194.2	38
204.1	31
206.2	221
207.2	256
214.2	12
218.2	44
219.2	11
227.1	36
228.2	41
230.1	12
242.2	11
254.2	14
270.9	15
