Mass spectrum: Novaluron; LC-ESI-QTOF; MS2; [M-H]-; CID; CE 40V
Name: Novaluron
Class: Non-natural product
Formula: C17H9ClF8N2O4
Exact mass: 492.01231
SMILES: C1=CC(=C(C(=C1)F)C(=O)NC(=O)NC2=CC(=C(C=C2)OC(C(OC(F)(F)F)F)(F)F)Cl)F
InChI: InChI=1S/C17H9ClF8N2O4/c18-8-6-7(4-5-11(8)31-16(22,23)14(21)32-17(24,25)26)27-15(30)28-13(29)12-9(19)2-1-3-10(12)20/h1-6,14H,(H2,27,28,29,30)
Instrument: X500R QTOF (AB Sciex LLC, MA, USA) coupled to ExionLC AD (AB Sciex LLC, MA, USA).
Instrument type: LC-ESI-QTOF
Ms type: MS2
Ion mode: NEGATIVE
Collision energy: 40 V
Fragmentation mode: CID
Ionization: ESI
Column name: TSKgel ODS-100S 5 um, 2.1 mm Ã— 250 mm, TOSOH
Retention time: 15.6 min
Precursor m/z: 491.005033
Precursor type: [M-H]-
m/z	relative intensity
41.9983	798
84.9904	959
93.0142	64
113.0204	212
140.9982	121
162.9819	101
165.9936	87
167.9853	95
260.9992	64
305.0129	999
307.9915	113
332.9867	280
