Mass spectrum: Foramsulfuron; LC-ESI-QTOF; MS2; [M+H]+; CID; CE 50V
Name: Foramsulfuron
Class: Non-natural product
Formula: C17H20N6O7S
Exact mass: 452.111418
SMILES: CN(C)C(=O)C1=C(C=C(C=C1)NC=O)S(=O)(=O)NC(=O)NC2=NC(=CC(=N2)OC)OC
InChI: InChI=1S/C17H20N6O7S/c1-23(2)15(25)11-6-5-10(18-9-24)7-12(11)31(27,28)22-17(26)21-16-19-13(29-3)8-14(20-16)30-4/h5-9H,1-4H3,(H,18,24)(H2,19,20,21,22,26)
Instrument: X500R QTOF (AB Sciex LLC, MA, USA) coupled to ExionLC AD (AB Sciex LLC, MA, USA).
Instrument type: LC-ESI-QTOF
Ms type: MS2
Ion mode: POSITIVE
Collision energy: 50 V
Fragmentation mode: CID
Ionization: ESI
Column name: AQ-C18HP 3 microm, 2.1 mm Ã— 150 mm (GL Science, Tokyo, Japan).
Retention time: 27.5 min
Precursor m/z: 453.118695
Precursor type: [M+H]+
m/z	relative intensity
83.024	262
100.0394	23
139.0502	341
148.0393	41
156.0768	89
157.0608	134
182.0561	999
212.001	115
227.0124	71
255.0438	122
