Mass spectrum: Mexazolam; LC-ESI-QQ; MS2; ESI; POSITIVE; CID; CE 50 V; [M+H]+
Name: Mexazolam
Class: Non-natural product
Formula: C18H16Cl2N2O2
Exact mass: 362.058876
SMILES: CC1COC2(N1CC(=O)NC3=C2C=C(C=C3)Cl)C4=CC=CC=C4Cl
InChI: InChI=1S/C18H16Cl2N2O2/c1-11-10-24-18(13-4-2-3-5-15(13)20)14-8-12(19)6-7-16(14)21-17(23)9-22(11)18/h2-8,11H,9-10H2,1H3,(H,21,23)
Instrument: LCMS-8040 coupled to Nexera XR (Shimadzu, Kyoto, Japan).
Instrument type: LC-ESI-QQ
Ms type: MS2
Ion mode: POSITIVE
Ionization: ESI
Collision energy: 50 V
Fragmentation mode: CID
Column name: InertSustain C18 ID 2.1 microm, 2.1 x 100 mm (GL Science, Tokyo, Japan).
Retention time: 10.227 min
Precursor m/z: 363.066153
Precursor type: [M+H]+
m/z	relative intensity
28.4	23
41.4	36
42.3	50
43.4	14
55.4	34
59.3	27
64.2	20
70.3	165
77.2	44
78.2	14
89.3	19
100.2	11
102.2	27
103.1	14
104.2	39
105.2	71
111.3	42
112.2	13
113.1	57
117.3	24
125.1	129
125.9	44
129.2	15
130.2	46
133.2	29
138.2	166
139.0	40
140.1	999
150.1	207
152.2	16
157.9	11
163.2	13
165.0	195
166.1	75
177.1	20
178.0	30
179.2	100
180.3	40
190.3	26
192.3	26
205.2	113
206.1	236
207.2	79
208.3	16
214.1	185
217.2	13
225.1	20
227.2	74
228.2	127
235.2	19
239.0	20
240.1	26
241.1	173
242.1	88
248.1	25
250.1	13
252.1	30
260.2	30
275.2	32
276.1	10
304.9	39
