Mass spectrum: Nitrazepam; LC-ESI-QQ; MS2; ESI; POSITIVE; CID; CE 40 V; [M+H]+
Name: Nitrazepam
Class: Non-natural product
Formula: C15H11N3O3
Exact mass: 281.08003
SMILES: C1C(=O)NC2=C(C=C(C=C2)[N+](=O)[O-])C(=N1)C3=CC=CC=C3
InChI: InChI=1S/C15H11N3O3/c19-14-9-16-15(10-4-2-1-3-5-10)12-8-11(18(20)21)6-7-13(12)17-14/h1-8H,9H2,(H,17,19)
Instrument: LCMS-8040 coupled to Nexera XR (Shimadzu, Kyoto, Japan).
Instrument type: LC-ESI-QQ
Ms type: MS2
Ion mode: POSITIVE
Collision energy: 40 V
Fragmentation mode: CID
Ionization: ESI
Column name: InertSustain C18 ID 2.1 microm, 2.1 x 100 mm (GL Science, Tokyo, Japan).
Retention time: 8.592 min
Precursor m/z: 282.08731
Precursor type: [M+H]+
m/z	relative intensity
77.2	33
90.2	19
91.2	63
93.3	12
103.1	33
104.2	102
105.2	47
106.2	17
118.4	10
129.2	45
130.1	127
131.1	22
133.3	14
151.0	20
152.1	55
153.2	69
159.1	19
164.1	24
165.2	46
166.1	12
167.1	41
168.2	41
178.0	14
179.1	57
180.2	999
190.2	221
191.2	49
192.1	60
193.2	20
194.2	32
205.3	22
206.2	111
207.2	550
208.2	57
217.3	10
235.2	82
236.2	273
250.9	12
282.1	14
