Mass spectrum: Diclomezine; LC-ESI-QTOF; MS2; [M+H]+; CID; CE 50V
Name: Diclomezine
Class: Non-natural product
Formula: C11H8Cl2N2O
Exact mass: 254.001368
SMILES: CC1=C(C=C(C=C1Cl)C2=NNC(=O)C=C2)Cl
InChI: InChI=1S/C11H8Cl2N2O/c1-6-8(12)4-7(5-9(6)13)10-2-3-11(16)15-14-10/h2-5H,1H3,(H,15,16)
Instrument: X500R QTOF (AB Sciex LLC, MA, USA) coupled to ExionLC AD (AB Sciex LLC, MA, USA).
Instrument type: LC-ESI-QTOF
Ms type: MS2
Ion mode: POSITIVE
Collision energy: 50 V
Fragmentation mode: CID
Ionization: ESI
Column name: AQ-C18HP 3 microm, 2.1 mm Ã— 150 mm (GL Science, Tokyo, Japan).
Retention time: 31.8 min
Precursor m/z: 255.008645
Precursor type: [M+H]+
m/z	relative intensity
80.013	234
89.0385	520
98.9998	225
106.0651	480
122.9998	999
124.0079	307
127.0542	187
128.062	512
129.0563	108
129.0699	213
130.0654	129
132.9606	253
140.0266	272
141.0338	826
155.0609	211
158.9769	695
163.0311	316
