Mass spectrum: Mexazolam; LC-ESI-QQ; MS; ESI; NEGATIVE
Name: Mexazolam
Class: Non-natural product
Formula: C18H16Cl2N2O2
Exact mass: 362.058876
SMILES: CC1COC2(N1CC(=O)NC3=C2C=C(C=C3)Cl)C4=CC=CC=C4Cl
InChI: InChI=1S/C18H16Cl2N2O2/c1-11-10-24-18(13-4-2-3-5-15(13)20)14-8-12(19)6-7-16(14)21-17(23)9-22(11)18/h2-8,11H,9-10H2,1H3,(H,21,23)
Instrument: LCMS-8040 coupled to Nexera XR (Shimadzu, Kyoto, Japan).
Instrument type: LC-ESI-QQ
Ms type: MS
Ion mode: NEGATIVE
Ionization: ESI
Column name: InertSustain C18 ID 2.1 microm, 2.1 x 100 mm (GL Science, Tokyo, Japan).
Retention time: 9.584 min
m/z	relative intensity
331.1	18
333.0	11
361.1	999
362.1	208
363.1	641
364.1	126
365.1	118
366.1	22
397.0	31
399.1	26
407.1	12
429.1	10
459.2	11
