Mass spectrum: Haloxazolam; LC-ESI-QQ; MS2; ESI; POSITIVE; CID; CE 30 V; [M+H]+
Name: Haloxazolam
Class: Non-natural product
Formula: C17H14BrFN2O2
Exact mass: 376.022261
SMILES: C1COC2(N1CC(=O)NC3=C2C=C(C=C3)Br)C4=CC=CC=C4F
InChI: InChI=1S/C17H14BrFN2O2/c18-11-5-6-15-13(9-11)17(12-3-1-2-4-14(12)19)21(7-8-23-17)10-16(22)20-15/h1-6,9H,7-8,10H2,(H,20,22)
Instrument: LCMS-8040 coupled to Nexera XR (Shimadzu, Kyoto, Japan).
Instrument type: LC-ESI-QQ
Ms type: MS2
Ion mode: POSITIVE
Collision energy: 30 V
Fragmentation mode: CID
Ionization: ESI
Column name: InertSustain C18 ID 2.1 microm, 2.1 x 100 mm (GL Science, Tokyo, Japan).
Retention time: 9.644 min
Precursor m/z: 377.029538
Precursor type: [M+H]+
m/z	relative intensity
45.3	21
56.2	17
103.2	14
109.3	68
122.2	14
123.1	26
124.2	48
132.9	41
134.1	17
136.1	14
158.2	33
184.1	151
198.0	14
205.3	14
206.4	60
208.1	14
209.8	28
211.4	14
226.2	322
227.3	52
237.2	50
257.8	36
299.4	41
303.0	14
304.1	151
305.1	57
306.1	20
314.9	27
333.1	999
349.0	71
375.7	14
377.1	292
