Mass spectrum: Thioridazine; LC-ESI-QQ; MS2; ESI; POSITIVE; CID; CE 40 V; [M+H]+
Name: Thioridazine
Class: Non-natural product
Formula: C21H26N2S2
Exact mass: 370.153732
SMILES: CN1CCCCC1CCN2C3=CC=CC=C3SC4=C2C=C(C=C4)SC
InChI: InChI=1S/C21H26N2S2/c1-22-13-6-5-7-16(22)12-14-23-18-8-3-4-9-20(18)25-21-11-10-17(24-2)15-19(21)23/h3-4,8-11,15-16H,5-7,12-14H2,1-2H3
Instrument: LCMS-8040 coupled to Nexera XR (Shimadzu, Kyoto, Japan).
Instrument type: LC-ESI-QQ
Ms type: MS2
Ion mode: POSITIVE
Collision energy: 40 V
Fragmentation mode: CID
Ionization: ESI
Column name: InertSustain C18 ID 2.1 microm, 2.1 x 100 mm (GL Science, Tokyo, Japan).
Retention time: 9.627 min
Precursor m/z: 371.161009
Precursor type: [M+H]+
m/z	relative intensity
44.3	17
55.3	39
58.3	282
70.3	100
83.3	14
84.3	28
98.3	999
126.3	560
211.1	31
226.1	37
243.1	13
258.1	22
