Mass spectrum: Lormetazepam; LC-ESI-QQ; MS2; ESI; POSITIVE; CID; CE 50 V; [M+H]+
Name: Lormetazepam
Class: Non-natural product
Formula: C16H12Cl2N2O2
Exact mass: 334.027576
SMILES: CN1C2=C(C=C(C=C2)Cl)C(=NC(C1=O)O)C3=CC=CC=C3Cl
InChI: InChI=1S/C16H12Cl2N2O2/c1-20-13-7-6-9(17)8-11(13)14(19-15(21)16(20)22)10-4-2-3-5-12(10)18/h2-8,15,21H,1H3
Instrument: LCMS-8040 coupled to Nexera XR (Shimadzu, Kyoto, Japan).
Instrument type: LC-ESI-QQ
Ms type: MS2
Ion mode: POSITIVE
Ionization: ESI
Collision energy: 50 V
Fragmentation mode: CID
Column name: InertSustain C18 ID 2.1 microm, 2.1 x 100 mm (GL Science, Tokyo, Japan).
Retention time: 9.178 min
Precursor m/z: 335.034853
Precursor type: [M+H]+
m/z	relative intensity
39.1	31
58.2	15
65.5	15
66.5	16
75.2	36
76.2	15
77.0	24
89.4	152
90.2	78
91.2	15
99.2	50
100.1	66
101.0	15
102.3	173
106.1	14
107.1	38
109.2	30
111.2	421
115.2	36
117.2	143
123.1	46
124.0	22
125.1	181
126.0	15
127.2	73
132.3	23
136.1	223
138.1	91
142.0	86
150.2	87
151.1	43
152.1	169
154.0	15
161.1	23
161.8	15
163.8	15
165.1	216
166.1	85
175.3	15
177.1	999
178.1	112
179.1	36
180.1	44
182.1	15
185.8	12
190.1	38
191.2	81
192.1	100
193.2	14
194.1	20
199.1	51
201.0	15
201.9	20
203.1	67
203.9	48
208.2	38
210.1	15
211.1	31
213.0	286
214.1	138
217.0	15
218.1	56
218.9	74
226.2	110
227.1	104
228.2	233
238.0	34
239.0	214
241.2	15
242.8	57
247.1	23
248.1	15
253.1	321
254.1	34
260.7	15
273.0	149
287.6	15
289.1	456
290.9	15
