Mass spectrum: Midazolam; LC-ESI-QQ; MS2; ESI; POSITIVE; CID; CE 30 V; [M+H]+
Name: Midazolam
Class: Non-natural product
Formula: C18H13ClFN3
Exact mass: 325.078191
SMILES: CC1=NC=C2N1C3=C(C=C(C=C3)Cl)C(=NC2)C4=CC=CC=C4F
InChI: InChI=1S/C18H13ClFN3/c1-11-21-9-13-10-22-18(14-4-2-3-5-16(14)20)15-8-12(19)6-7-17(15)23(11)13/h2-9H,10H2,1H3
Instrument: LCMS-8040 coupled to Nexera XR (Shimadzu, Kyoto, Japan).
Instrument type: LC-ESI-QQ
Ms type: MS2
Ion mode: POSITIVE
Collision energy: 30 V
Fragmentation mode: CID
Ionization: ESI
Column name: InertSustain C18 ID 2.1 microm, 2.1 x 100 mm (GL Science, Tokyo, Japan).
Retention time: 9.584 min
Precursor m/z: 326.085468
Precursor type: [M+H]+
m/z	relative intensity
129.1	35
164.1	16
169.1	10
170.2	19
189.1	48
196.2	16
204.9	12
208.1	48
209.1	185
222.2	23
223.1	100
230.2	22
231.2	18
244.1	166
249.2	169
250.2	90
258.2	42
263.2	12
265.0	23
270.2	19
283.9	11
285.1	70
289.1	18
290.2	110
291.2	999
306.2	12
309.1	40
311.2	17
326.2	323
