Mass spectrum: Clemastine; LC-ESI-QQ; MS2; ESI; POSITIVE; CID; CE 30 V; [M+H]+
Name: Clemastine
Class: Non-natural product
Formula: C21H26ClNO
Exact mass: 343.170288
SMILES: C[C@@](C1=CC=CC=C1)(C2=CC=C(C=C2)Cl)OCC[C@H]3CCCN3C
InChI: InChI=1S/C21H26ClNO/c1-21(17-7-4-3-5-8-17,18-10-12-19(22)13-11-18)24-16-14-20-9-6-15-23(20)2/h3-5,7-8,10-13,20H,6,9,14-16H2,1-2H3/t20-,21-/m1/s1
Instrument: LCMS-8040 coupled to Nexera XR (Shimadzu, Kyoto, Japan).
Instrument type: LC-ESI-QQ
Ms type: MS2
Ion mode: POSITIVE
Collision energy: 30 V
Fragmentation mode: CID
Ionization: ESI
Column name: InertSustain C18 ID 2.1 microm, 2.1 x 100 mm (GL Science, Tokyo, Japan).
Retention time: 9.361 min
Precursor m/z: 344.177565
Precursor type: [M+H]+
m/z	relative intensity
81.3	11
84.3	16
102.1	14
103.2	201
112.3	13
130.2	389
137.1	428
165.2	111
178.2	56
179.2	371
180.2	581
200.1	11
215.1	999
