Mass spectrum: Sultopride; LC-ESI-QQ; MS; ESI; NEGATIVE
Name: Sultopride
Class: Non-natural product
Formula: C17H26N2O4S
Exact mass: 354.161321
SMILES: CCN1CCCC1CNC(=O)C2=C(C=CC(=C2)S(=O)(=O)CC)OC
InChI: InChI=1S/C17H26N2O4S/c1-4-19-10-6-7-13(19)12-18-17(20)15-11-14(24(21,22)5-2)8-9-16(15)23-3/h8-9,11,13H,4-7,10,12H2,1-3H3,(H,18,20)
Instrument: LCMS-8040 coupled to Nexera XR (Shimadzu, Kyoto, Japan).
Instrument type: LC-ESI-QQ
Ms type: MS
Ion mode: NEGATIVE
Ionization: ESI
Column name: InertSustain C18 ID 2.1 microm, 2.1 x 100 mm (GL Science, Tokyo, Japan).
Retention time: 4.933 min
m/z	relative intensity
100.9	22
112.7	18
128.9	16
137.1	19
144.9	17
164.9	14
181.0	11
227.0	13
339.2	130
340.2	29
341.2	18
353.2	999
354.2	172
355.2	63
356.1	13
389.2	328
390.1	66
391.2	146
392.1	22
399.2	600
400.2	112
401.2	42
416.2	14
443.2	12
471.1	57
473.1	39
