Mass spectrum: Triazolam; LC-ESI-QQ; MS; ESI; POSITIVE
Name: Triazolam
Class: Non-natural product
Formula: C17H12Cl2N4
Exact mass: 342.04389
SMILES: CC1=NN=C2N1C3=C(C=C(C=C3)Cl)C(=NC2)C4=CC=CC=C4Cl
InChI: InChI=1S/C17H12Cl2N4/c1-10-21-22-16-9-20-17(12-4-2-3-5-14(12)19)13-8-11(18)6-7-15(13)23(10)16/h2-8H,9H2,1H3
Instrument: LCMS-8040 coupled to Nexera XR (Shimadzu, Kyoto, Japan).
Instrument type: LC-ESI-QQ
Ms type: MS
Ion mode: POSITIVE
Ionization: ESI
Column name: InertSustain C18 ID 2.1 microm, 2.1 x 100 mm (GL Science, Tokyo, Japan).
Retention time: 8.845 min
m/z	relative intensity
343.2	999
344.2	186
345.2	613
346.2	114
347.2	108
348.2	21
