Mass spectrum: S-Ethyl 4-(benzyloxy)benzothioate; GC-EI-TOF; MS; POSITIVE; 70 V
Name: S-Ethyl 4-(benzyloxy)benzothioate
Class: Non-natural compound
Formula: C16H16O2S
Exact mass: 272.087101
SMILES: O=C(SCC)c1ccc(OCc2ccccc2)cc1
InChI: InChI=1S/C16H16O2S/c1-2-19-16(17)14-8-10-15(11-9-14)18-12-13-6-4-3-5-7-13/h3-11H,2,12H2,1H3
Instrument: JMS-T100GCV (JEOL, Akishima, Japan) coupled to Agilent 7890A (Santa Clara, CA, USA) gas chromatograph.
Instrument type: GC-EI-TOF
Ms type: MS
Ion mode: POSITIVE
Ionization: EI
Column name: ZB-1MS 7HM-G011-11 sn:313446 (Agilent, Wilmington, USA) with the length 30.0 m, I.D. 0.32 mm, and thickness 0.25 micrometer.
Retention time: 11.38 min
m/z	relative intensity
27.023	13
28.006	8
29.039	15
31.99	4
34.995	6
38.015	4
39.023	20
41.039	13
43.054	9
44.98	5
50.015	7
51.023	10
52.031	2
53.039	3
55.018	4
55.055	7
57.07	9
61.011	5
62.015	3
63.023	26
64.031	22
65.039	94
66.042	6
67.054	3
69.07	5
71.085	4
73.047	2
75.023	3
76.031	11
77.038	7
81.07	3
83.085	4
89.039	14
90.046	7
91.054	999
91.525	3
91.846	2
92.026	22
92.057	79
93.032	4
93.062	3
95.085	3
97.011	5
98.072	2
104.025	4
105.033	3
120.021	9
121.028	8
125.006	7
152.061	5
153.037	8
181.065	4
182.072	2
183.078	3
207.031	3
211.075	475
211.357	1
211.717	1
211.793	1
212.078	75
213.081	7
272.087	13
273.092	2
