Mass spectrum: Ibuprofen; LC-ESI-QQ; MS; ESI; NEGATIVE
Name: Ibuprofen
Class: Non-natural product
Formula: C13H18O2
Exact mass: 206.13068
SMILES: CC(C)CC1=CC=C(C=C1)C(C)C(=O)O
InChI: InChI=1S/C13H18O2/c1-9(2)8-11-4-6-12(7-5-11)10(3)13(14)15/h4-7,9-10H,8H2,1-3H3,(H,14,15)
Instrument: LCMS-8040 coupled to Nexera XR (Shimadzu, Kyoto, Japan).
Instrument type: LC-ESI-QQ
Ms type: MS
Ion mode: NEGATIVE
Ionization: ESI
Column name: InertSustain C18 ID 2.1 microm, 2.1 x 100 mm (GL Science, Tokyo, Japan).
Retention time: 9.586 min
m/z	relative intensity
159.1	18
161.1	203
162.1	29
205.1	999
206.1	136
207.1	14
251.1	150
252.2	26
273.1	79
274.1	12
289.1	14
411.3	39
412.4	10
433.3	20
501.3	12
