Mass spectrum: Clonazepam; LC-ESI-QQ; MS2; ESI; POSITIVE; CE 40 V; [M+H]+
Name: Clonazepam
Class: Non-natural product
Formula: C15H10ClN3O3
Exact mass: 315.04105
SMILES: C1C(=O)NC2=C(C=C(C=C2)[N+](=O)[O-])C(=N1)C3=CC=CC=C3Cl
InChI: InChI=1S/C15H10ClN3O3/c16-12-4-2-1-3-10(12)15-11-7-9(19(21)22)5-6-13(11)18-14(20)8-17-15/h1-7H,8H2,(H,18,20)
Instrument: LCMS-8040 coupled to Nexera XR (Shimadzu, Kyoto, Japan).
Instrument type: LC-ESI-QQ
Ms type: MS2
Ion mode: POSITIVE
Collision energy: 40 V
Ionization: ESI
Column name: InertSustain C18 ID 2.1 microm, 2.1 x 100 mm (GL Science, Tokyo, Japan).
Retention time: 8.612 min
Precursor m/z: 316.04834
Precursor type: [M+H]+
m/z	relative intensity
53	11
57	43
77	21
78	21
79	21
92	20
93	21
103	74
104	134
105	71
117	21
120	40
125	31
129	48
130	89
131	21
133	51
139	32
141	17
145	43
150	11
151	84
152	64
153	43
157	43
165	34
166	121
167	41
168	42
175	11
176	86
177	21
178	63
179	100
180	268
181	21
182	21
186	31
189	11
190	290
191	29
192	75
193	70
195	53
199	31
200	21
201	11
202	97
205	160
206	189
207	407
214	999
217	21
218	21
223	43
224	39
227	61
228	98
230	21
234	43
237	21
239	61
240	46
241	796
242	21
255	11
269	124
270	764
315.6	44
316.2	32
