Mass spectrum: 1-Methyl-4-(6,6,6-trifluoro-3-hexyenyl)benzene; GC-EI-TOF; MS; POSITIVE; 70 V
Name: 1-Methyl-4-(6,6,6-trifluoro-3-hexyenyl)benzene
Class: Non-natural compound
Formula: C13H15F3
Exact mass: 228.112584
SMILES: CC1=CC=C(C=C1)CC/C=C/CC(F)(F)F
InChI: InChI=1S/C13H15F3/c1-11-6-8-12(9-7-11)5-3-2-4-10-13(14,15)16/h2,4,6-9H,3,5,10H2,1H3/b4-2+
Instrument: JMS-T100GCV (JEOL, Akishima, Japan) coupled to Agilent 7890A (Santa Clara, CA, USA) gas chromatograph.
Instrument type: GC-EI-TOF
Ms type: MS
Ion mode: POSITIVE
Ionization: EI
Column name: ZB-1MS 7HM-G011-11 sn:313446 (Agilent, Wilmington, USA) with the length 30.0 m, I.D. 0.32 mm, and thickness 0.25 micrometer.
Retention time: 7.46 min
m/z	relative intensity
27.024	23
28.007	13
31.99	5
39.024	30
40.03	2
41.04	7
50.016	5
51.024	20
52.032	6
53.04	13
54.047	3
59.03	18
63.024	11
64.031	4
65.04	18
68.996	4
76.032	3
77.04	76
78.047	20
79.055	57
80.059	3
89.04	6
91.055	20
92.062	3
102.047	5
103.055	43
104.062	22
105.071	999
105.577	3
105.919	2
106.074	78
106.283	2
107.078	3
115.055	14
116.062	4
117.071	6
118.078	2
123.045	2
127.055	3
128.063	11
129.07	8
141.07	4
143.086	4
228.113	59
229.116	7
