Mass spectrum: Chlorzoxazone; LC-ESI-QQ; MS2; ESI; NEGATIVE; CID; CE 30 V; [M-H]-
Name: Chlorzoxazone
Class: Non-natural product
Formula: C7H4ClNO2
Exact mass: 168.993053
SMILES: C1=CC2=C(C=C1Cl)NC(=O)O2
InChI: InChI=1S/C7H4ClNO2/c8-4-1-2-6-5(3-4)9-7(10)11-6/h1-3H,(H,9,10)
Instrument: LCMS-8040 coupled to Nexera XR (Shimadzu, Kyoto, Japan).
Instrument type: LC-ESI-QQ
Ms type: MS2
Ion mode: NEGATIVE
Collision energy: 30 V
Fragmentation mode: CID
Ionization: ESI
Column name: InertSustain C18 ID 2.1 microm, 2.1 x 100 mm (GL Science, Tokyo, Japan).
Retention time: 8.312 min
Precursor m/z: 167.985776
Precursor type: [M-H]-
m/z	relative intensity
26.2	22
35.1	235
42.1	21
50.0	45
76.1	222
89.1	11
104.0	35
125.1	13
132.0	999
167.9	456
