Mass spectrum: S-Ethyl thiophene-2-carbothioate; GC-EI-TOF; MS; POSITIVE; 70 V
Name: S-Ethyl thiophene-2-carbothioate
Class: Non-natural compound
Formula: C7H8OS2
Exact mass: 172.001657
SMILES: CCSC(=O)C1=CC=CS1
InChI: InChI=1S/C7H8OS2/c1-2-9-7(8)6-4-3-5-10-6/h3-5H,2H2,1H3
Instrument: JMS-T100GCV (JEOL, Akishima, Japan) coupled to Agilent 7890A (Santa Clara, CA, USA) gas chromatograph.
Instrument type: GC-EI-TOF
Ms type: MS
Ion mode: POSITIVE
Ionization: EI
Column name: ZB-1MS 7HM-G011-11 sn:313446 (Agilent, Wilmington, USA) with the length 30.0 m, I.D. 0.32 mm, and thickness 0.25 micrometer.
Retention time: 7.86 min
m/z	relative intensity
26.016	10
27.023	52
28.006	25
28.03	6
29.039	29
31.99	16
34.995	11
37.008	6
38.016	18
39.023	215
39.071	2
40.027	8
43.99	3
44.98	53
45.987	7
49.008	3
50.015	9
51.023	4
53.003	12
56.98	53
57.987	19
58.995	12
60.002	3
61.011	7
68.98	15
69.987	2
70.995	29
77.003	2
80.98	18
81.988	26
82.995	71
83.999	6
84.992	3
91.054	3
110.99	999
111.51	3
111.993	67
112.293	2
112.987	45
113.065	1
113.99	3
114.968	7
126.966	3
143.971	4
172.002	94
172.101	2
173.005	9
173.998	9
