Mass spectrum: (((4-(Dimethylsilyl)phenyl)thio)methyl)diphenylsilane; GC-EI-TOF; MS; POSITIVE; 70 V
Name: (((4-(Dimethylsilyl)phenyl)thio)methyl)diphenylsilane
Class: Non-natural compound
Formula: C21H24SSi2
Exact mass: 364.113725
SMILES: C[SiH](C)c1ccc(SC[SiH](c2ccccc2)c2ccccc2)cc1
InChI: InChI=1S/C21H24SSi2/c1-23(2)19-15-13-18(14-16-19)22-17-24(20-9-5-3-6-10-20)21-11-7-4-8-12-21/h3-16,23-24H,17H2,1-2H3
Instrument: JMS-T100GCV (JEOL, Akishima, Japan) coupled to Agilent 7890A (Santa Clara, CA, USA) gas chromatograph.
Instrument type: GC-EI-TOF
Ms type: MS
Ion mode: POSITIVE
Ionization: EI
Column name: HP-5 19091J-413 USD364547H (Agilent, Wilmington, USA) with the length 30.0 m, I.D. 0.32 mm, and thickness 0.25 micrometer.
Retention time: 12.56 min
m/z	relative intensity
28.006	23
28.985	6
31.001	15
31.99	8
39.024	6
43.001	53
44.004	4
44.981	6
45.016	5
50.017	3
51.024	12
52.031	3
52.985	53
53.041	2
53.988	4
55.001	11
57.017	7
58.025	24
59.032	213
60.033	14
60.957	3
61.029	7
63.024	4
65.04	21
65.994	4
67.001	15
68.007	3
69.017	9
72.04	3
74.973	19
76.032	5
76.986	6
77.04	42
77.993	4
78.047	14
79.001	42
79.055	7
80.004	5
81.017	8
83.032	9
89.04	13
90.048	10
91.004	7
91.056	149
92.009	4
92.059	12
93.017	45
93.068	1
94.019	5
95.032	6
103.002	35
103.056	5
104.008	11
104.064	6
105.017	441
105.072	17
105.471	1
105.524	1
106.019	51
106.074	2
107.028	24
108.036	4
109.047	2
115.056	6
117.017	13
118.024	8
119.033	71
120.039	26
121.048	64
122.051	10
123.043	3
128.064	3
129.017	13
130.023	4
131.033	21
132.037	4
133.048	10
134.056	22
135.063	99
135.982	3
136.066	14
136.989	24
137.062	4
137.991	3
138.988	2
141.071	2
143.033	5
145.048	7
147.064	3
148.071	7
148.99	10
149.078	5
149.996	13
151.005	39
152.009	9
152.063	20
153.016	7
153.069	6
154.023	3
154.078	2
155.033	44
156.035	7
157.048	8
164.014	2
165.022	41
165.071	56
166.028	32
166.076	15
167.034	31
167.087	20
168.036	7
168.091	3
169.046	6
176.049	2
179.035	25
180.043	160
181.048	409
181.321	5
181.663	2
182.051	83
182.322	1
182.652	1
182.724	1
183.064	999
183.688	3
184.066	177
184.698	2
185.063	44
185.715	1
186.066	5
191.033	2
193.049	19
194.055	12
195.064	146
195.197	5
196.07	171
197.079	360
197.708	1
197.779	1
198.081	68
199.079	17
200.082	2
207.052	2
208.022	2
209.027	4
209.079	3
210.086	4
211.093	3
213.02	16
214.024	4
215.035	15
216.038	3
217.034	1
225.027	3
226.028	4
227.036	68
228.039	18
229.044	11
230.045	2
239.073	3
240.079	6
241.082	3
242.067	2
255.076	1
257.08	9
258.084	3
259.094	11
260.096	3
271.044	20
272.046	5
273.053	5
285.059	6
286.064	3
287.068	2
289.052	4
291.065	3
303.069	3
304.075	3
305.083	7
306.084	2
317.118	22
318.121	7
319.119	3
348.08	2
349.09	15
350.092	5
351.09	2
363.106	8
364.114	374
365.116	128
366.113	59
367.114	14
368.111	3
