Mass spectrum: Amlodipine; LC-ESI-QQ; MS; ESI; POSITIVE
Name: Amlodipine
Class: Non-natural product
Formula: C20H25ClN2O5
Exact mass: 408.145193
SMILES: CCOC(=O)C1=C(NC(=C(C1C2=CC=CC=C2Cl)C(=O)OC)C)COCCN
InChI: InChI=1S/C20H25ClN2O5/c1-4-28-20(25)18-15(11-27-10-9-22)23-12(2)16(19(24)26-3)17(18)13-7-5-6-8-14(13)21/h5-8,17,23H,4,9-11,22H2,1-3H3
Instrument: LCMS-8040 coupled to Nexera XR (Shimadzu, Kyoto, Japan).
Instrument type: LC-ESI-QQ
Ms type: MS
Ion mode: POSITIVE
Ionization: ESI
Column name: InertSustain C18 ID 2.1 microm, 2.1 x 100 mm (GL Science, Tokyo, Japan).
Retention time: 8.556 min
m/z	relative intensity
149.1	11
206.1	21
208.1	14
214.2	43
220.1	14
231.2	13
238.2	579
239.2	85
240.2	224
241.2	25
294.2	547
295.2	108
296.2	189
297.2	26
377.3	39
379.3	22
392.3	35
394.2	17
409.3	999
410.3	215
411.3	348
412.3	68
413.3	11
415.3	15
431.3	172
432.2	34
433.3	55
447.2	42
448.3	13
449.2	27
499.3	13
