Mass spectrum: ((tert-Butylthio)methyl)diphenylsilane; GC-EI-TOF; MS; POSITIVE; 70 V
Name: ((tert-Butylthio)methyl)diphenylsilane
Class: Non-natural compound
Formula: C17H22SSi
Exact mass: 286.121148
SMILES: CC(C)(C)SC[SiH](c1ccccc1)c1ccccc1
InChI: InChI=1S/C17H22SSi/c1-17(2,3)18-14-19(15-10-6-4-7-11-15)16-12-8-5-9-13-16/h4-13,19H,14H2,1-3H3
Instrument: JMS-T100GCV (JEOL, Akishima, Japan) coupled to Agilent 7890A (Santa Clara, CA, USA) gas chromatograph.
Instrument type: GC-EI-TOF
Ms type: MS
Ion mode: POSITIVE
Ionization: EI
Column name: HP-5 19091J-413 USD364547H (Agilent, Wilmington, USA) with the length 30.0 m, I.D. 0.32 mm, and thickness 0.25 micrometer.
Retention time: 10.53 min
m/z	relative intensity
27.024	12
28.006	41
28.031	4
29.039	85
31.99	18
39.024	27
40.03	3
41.04	122
41.067	1
41.092	2
42.045	8
43.001	4
44.98	4
45.989	3
50.016	3
51.024	12
52.032	3
52.985	52
53.04	4
53.989	5
55.001	8
55.055	11
56.063	7
57.071	338
58.074	15
58.997	6
60.957	3
63.024	3
65.04	16
65.993	4
67.001	8
70.079	3
74.973	8
76.985	6
77.04	32
77.993	4
78.047	11
79.001	44
79.055	5
80.004	6
81.016	6
89.04	7
90.047	5
91.055	164
92.06	17
93.017	18
93.068	2
103.001	29
103.058	2
104.006	7
105.017	316
106.019	39
107.022	13
115.056	4
117.017	6
118.023	3
119.033	18
119.087	4
120.035	3
121.045	2
128.064	3
129.017	13
130.026	12
131.032	11
132.031	2
136.989	53
137.994	14
139.003	16
140.002	2
141.005	1
143.033	3
148.989	3
149.997	4
151.004	97
152.012	345
153.015	66
154.01	31
154.078	3
155.032	33
156.034	6
157.046	5
165.071	19
166.076	5
167.032	4
167.087	5
179.033	8
180.041	37
180.171	2
181.048	194
181.315	3
182.052	45
183.064	999
183.735	3
184.066	186
184.689	2
185.063	47
185.68	1
185.74	1
186.066	6
193.049	8
194.056	4
195.064	92
196.071	91
197.075	30
198.075	6
208.073	5
213.021	3
215.036	127
216.038	23
217.034	12
227.036	8
228.041	4
229.051	37
230.059	213
231.061	46
232.057	20
233.058	3
271.097	3
286.121	85
287.123	22
288.12	9
