Mass spectrum: Fludiazepam; LC-ESI-QQ; MS2; ESI; POSITIVE; CID; CE 50 V; [M+H]+
Name: Fludiazepam
Class: Non-natural product
Formula: C16H12ClFN2O
Exact mass: 302.062211
SMILES: CN1C(=O)CN=C(C2=C1C=CC(=C2)Cl)C3=CC=CC=C3F
InChI: InChI=1S/C16H12ClFN2O/c1-20-14-7-6-10(17)8-12(14)16(19-9-15(20)21)11-4-2-3-5-13(11)18/h2-8H,9H2,1H3
Instrument: LCMS-8040 coupled to Nexera XR (Shimadzu, Kyoto, Japan).
Instrument type: LC-ESI-QQ
Ms type: MS2
Ion mode: POSITIVE
Collision energy: 50 V
Fragmentation mode: CID
Ionization: ESI
Column name: InertSustain C18 ID 2.1 microm, 2.1 x 100 mm (GL Science, Tokyo, Japan).
Retention time: 9.408 min
Precursor m/z: 303.069488
Precursor type: [M+H]+
m/z	relative intensity
30.4	63
42.3	38
48.1	16
51.3	14
58.3	214
63.3	15
65.2	38
75.3	46
77.3	183
78.3	38
80.1	20
83.2	45
89.2	451
90.3	520
91.2	417
95.2	179
97.4	22
99.2	86
102.2	123
103.3	35
104.2	118
105.2	47
107.1	33
109.2	357
111.2	77
113.0	37
114.1	68
115.2	38
116.3	89
117.2	614
118.2	392
119.2	221
122.1	49
123.1	111
124.1	13
125.1	546
126.3	44
127.2	23
128.2	31
131.8	45
133.1	12
134.1	68
135.2	15
136.1	140
137.2	51
138.2	199
139.2	46
140.2	51
143.2	164
144.0	16
147.1	79
150.2	90
151.0	30
152.2	86
153.1	31
154.1	388
162.1	32
163.1	259
164.1	201
165.2	94
167.1	16
170.1	29
170.9	17
172.9	15
176.1	33
177.1	124
178.2	70
179.1	90
179.9	30
182.1	56
183.1	577
184.2	49
185.1	29
190.2	99
190.9	24
192.1	21
192.9	22
195.2	21
196.1	19
197.2	15
198.2	191
199.2	22
202.2	31
202.9	12
205.1	369
206.1	30
208.1	35
209.1	64
211.1	999
212.1	120
213.1	11
214.3	33
216.7	12
218.1	26
219.1	53
220.2	28
222.2	80
223.2	72
224.1	153
225.1	75
226.0	16
231.3	21
234.0	18
237.3	16
238.1	23
239.2	142
240.2	90
241.0	15
245.1	38
246.1	45
247.7	16
253.1	24
257.2	65
259.0	225
260.3	16
273.5	16
287.1	12
303.2	31
