Mass spectrum: Methyl 2-(3-(4-nitrobenzoyl)phenyl)propanoate; GC-EI-TOF; MS; POSITIVE; 70 V
Name: Methyl 2-(3-(4-nitrobenzoyl)phenyl)propanoate
Class: Non-natural compound
Formula: C17H15NO5
Exact mass: 313.09502
SMILES: O=[N+]([O-])c1ccc(cc1)C(=O)c1cccc(c1)C(C)C(=O)OC
InChI: InChI=1S/C17H15NO5/c1-11(17(20)23-2)13-4-3-5-14(10-13)16(19)12-6-8-15(9-7-12)18(21)22/h3-11H,1-2H3
Instrument: JMS-T100GCV (JEOL, Akishima, Japan) coupled to Agilent 7890A (Santa Clara, CA, USA) gas chromatograph.
Instrument type: GC-EI-TOF
Ms type: MS
Ion mode: POSITIVE
Ionization: EI
Column name: DB-5MS 122-5532 USA360633H (Agilent, Wilmington, USA) with the length 30.0 m, I.D. 0.25 mm, and thickness 0.25 micrometer.
Retention time: 12.59 min
m/z	relative intensity
27.025	16
28.008	20
30	21
39.025	19
43.021	10
50.018	36
51.025	29
52.032	11
53.041	8
59.015	139
59.055	4
63.026	25
64.033	18
65.041	15
74.018	8
75.026	50
76.033	241
76.097	5
77.041	144
78.049	91
79.054	12
89.041	24
90.049	5
91.057	24
92.028	92
93.033	8
101.042	8
102.049	31
103.057	266
104.028	340
104.064	141
105.033	37
105.069	17
115.058	11
119.088	29
120.023	64
121.03	20
122.027	8
131.051	58
132.058	27
133.031	10
134.025	6
135.083	4
139.057	11
147.062	4
150.021	391
150.187	4
151.024	31
152.065	39
153.071	15
163.071	12
164.066	7
165.072	37
166.077	8
176.065	12
177.072	10
178.08	45
179.087	28
180.072	10
181.066	11
191.072	112
192.075	14
193.067	24
206.076	5
207.035	12
207.083	25
208.089	53
209.091	10
224.095	6
237.081	8
238.088	22
239.06	11
253.075	10
254.082	999
255.086	162
256.089	18
269.106	24
270.107	6
281.068	45
282.071	11
283.126	10
296.092	15
297.1	9
313.095	301
314.098	56
315.102	8
