Mass spectrum: Carpipramine; LC-ESI-QQ; MS; ESI; NEGATIVE
Name: Carpipramine
Class: Non-natural product
Formula: C28H38N4O
Exact mass: 446.304545
SMILES: C1CCN(CC1)C2(CCN(CC2)CCCN3C4=CC=CC=C4CCC5=CC=CC=C53)C(=O)N
InChI: InChI=1S/C28H38N4O/c29-27(33)28(31-18-6-1-7-19-31)15-21-30(22-16-28)17-8-20-32-25-11-4-2-9-23(25)13-14-24-10-3-5-12-26(24)32/h2-5,9-12H,1,6-8,13-22H2,(H2,29,33)
Instrument: LCMS-8040 coupled to Nexera XR (Shimadzu, Kyoto, Japan).
Instrument type: LC-ESI-QQ
Ms type: MS
Ion mode: NEGATIVE
Ionization: ESI
Column name: InertSustain C18 ID 2.1 microm, 2.1 x 100 mm (GL Science, Tokyo, Japan).
Retention time: 9.788 min
m/z	relative intensity
109.1	14
111.0	10
115.0	15
131.0	31
135.0	11
139.2	11
141.1	16
143.9	12
146.1	14
148.8	13
153.1	14
157.2	11
159.0	25
164.6	25
167.1	12
169.0	13
172.3	20
174.0	11
180.9	23
186.9	26
191.4	15
193.0	29
198.9	12
200.5	15
201.3	16
207.0	10
212.9	24
214.3	12
216.9	20
220.1	10
227.0	14
233.2	11
239.1	19
240.9	21
243.0	27
249.5	11
253.1	23
256.9	26
259.1	16
270.9	29
273.1	15
275.2	15
277.2	69
281.1	24
287.3	11
289.0	28
293.2	11
299.2	20
307.1	19
310.2	11
313.1	19
321.1	20
323.2	19
326.9	10
333.2	16
335.0	19
337.0	14
343.1	31
345.4	39
346.6	12
354.4	15
357.1	13
358.7	11
362.3	10
363.1	19
367.3	20
369.0	16
371.2	14
375.1	15
383.3	14
391.5	14
397.1	16
398.4	12
401.5	18
403.2	11
408.2	13
419.5	23
427.2	13
438.5	10
445.3	999
447.4	51
467.1	14
481.1	33
482.5	27
483.5	19
484.1	12
491.3	187
492.5	76
509.4	10
592.3	11
