Mass spectrum: Imazosulfuron; LC-ESI-QTOF; MS2; [M-H]-; CID; CE 10V
Name: Imazosulfuron
Class: Non-natural product
Formula: C14H13ClN6O5S
Exact mass: 412.035666
SMILES: COC1=CC(=NC(=N1)NC(=O)NS(=O)(=O)C2=C(N=C3N2C=CC=C3)Cl)OC
InChI: InChI=1S/C14H13ClN6O5S/c1-25-9-7-10(26-2)18-13(17-9)19-14(22)20-27(23,24)12-11(15)16-8-5-3-4-6-21(8)12/h3-7H,1-2H3,(H2,17,18,19,20,22)
Instrument: X500R QTOF (AB Sciex LLC, MA, USA) coupled to ExionLC AD (AB Sciex LLC, MA, USA).
Instrument type: LC-ESI-QTOF
Ms type: MS2
Ion mode: NEGATIVE
Collision energy: 10 V
Fragmentation mode: CID
Ionization: ESI
Column name: AQ-C18HP 3 microm, 2.1 mm Ã— 150 mm (GL Science, Tokyo, Japan).
Retention time: 31.9 min
Precursor m/z: 411.028389
Precursor type: [M-H]-
m/z	relative intensity
229.9801	28
411.0284	999
