Mass spectrum: 6-(4-{[2-(dodecanoylamino)ethyl]amino}-4-oxobutanamido)-N,N-dimethylhexan-1-amine N-oxide; ESI-QTOF; MS2; ESI; [M+H]+; CE 40 V
Name: 6-(4-{[2-(dodecanoylamino)ethyl]amino}-4-oxobutanamido)-N,N-dimethylhexan-1-amine N-oxide
Name: AAO 11-2-2-6
Class: Non-natural product
Formula: C26H52N4O4
Exact mass: 484.398840
SMILES: O=C(NCCNC(=O)CCCCCCCCCCC)CCC(=O)NCCCCCC[N+]([O-])(C)C
InChI: InChI=1S/C26H52N4O4/c1-4-5-6-7-8-9-10-11-14-17-24(31)28-21-22-29-26(33)19-18-25(32)27-20-15-12-13-16-23-30(2,3)34/h4-23H2,1-3H3,(H,27,32)(H,28,31)(H,29,33)
Instrument: X500R QTOF (AB Sciex LLC, MA, USA)
Instrument type: ESI-QTOF
Ms type: MS2
Ion mode: POSITIVE
Collision energy: 40 V
Fragmentation mode: CID
Ionization: ESI
Precursor m/z: 485.406117 
Precursor type: [M+H]+
m/z	relative intensity
58.06477	48
83.08509	14
98.09596	41
100.03886	55
100.11158	53
114.12719	20
125.07042	26
126.05443	32
126.12715	9
128.14282	13
143.08093	127
161.16428	40
182.11685	302
199.14346	13
224.17497	48
225.15903	19
225.23165	29
226.21538	730
227.17459	26
242.18553	29
243.16958	47
243.24225	113
325.24745	180
406.34130	75
424.35181	60
467.39387	51
485.40360	999
