Mass spectrum: Carbamazepine; LC-ESI-QQ; MS2; ESI; POSITIVE; CID; CE 50 V; [M+H]+
Name: Carbamazepine
Class: Non-natural product
Formula: C15H12N2O
Exact mass: 236.094955
SMILES: C1=CC=C2C(=C1)C=CC3=CC=CC=C3N2C(=O)N
InChI: InChI=1S/C15H12N2O/c16-15(18)17-13-7-3-1-5-11(13)9-10-12-6-2-4-8-14(12)17/h1-10H,(H2,16,18)
Instrument: LCMS-8040 coupled to Nexera XR (Shimadzu, Kyoto, Japan).
Instrument type: LC-ESI-QQ
Ms type: MS2
Ion mode: POSITIVE
Collision energy: 50 V
Fragmentation mode: CID
Ionization: ESI
Column name: InertSustain C18 ID 2.1 microm, 2.1 x 100 mm (GL Science, Tokyo, Japan).
Retention time: 8.428 min
Precursor m/z: 237.102232
Precursor type: [M+H]+
m/z	relative intensity
41.2	12
44.3	24
63.1	15
65.2	84
77.2	46
89.2	268
90.2	198
91.2	49
101.3	20
102.4	17
115.2	116
116.1	64
117.2	123
127.1	17
128.2	97
139.1	100
140.1	83
143.1	15
151.1	260
152.1	305
153.2	54
154.2	27
163.2	71
164.2	148
165.1	793
166.1	220
167.1	316
168.1	12
176.1	72
177.1	109
178.1	441
179.1	526
190.1	298
191.1	999
192.1	958
193.2	821
194.1	187
