Mass spectrum: 2-Allyl-3-methoxybenzonitrile; GC-EI-TOF; MS; POSITIVE; 70 V
Name: 2-Allyl-3-methoxybenzonitrile
Class: Non-natural compound
Formula: C11H11NO
Exact mass: 173.08406
SMILES: COC1=CC=CC(=C1CC=C)C#N
InChI: InChI=1S/C11H11NO/c1-3-5-10-9(8-12)6-4-7-11(10)13-2/h3-4,6-7H,1,5H2,2H3
Instrument: JMS-T100GCV (JEOL, Akishima, Japan) coupled to Agilent 7890A (Santa Clara, CA, USA) gas chromatograph.
Instrument type: GC-EI-TOF
Ms type: MS
Ion mode: POSITIVE
Ionization: EI
Column name: HP-5 19091J-413 USD364547H (Agilent, Wilmington, USA) with the length 30.0 m, I.D. 0.32 mm, and thickness 0.25 micrometer.
Retention time: 8.20 min
m/z	relative intensity
26.016	12
27.024	70
28.007	13
28.02	7
29.004	10
29.04	9
31.019	4
31.991	8
37.009	8
38.017	29
39.024	174
39.073	2
40.03	10
41.04	28
42.044	2
43.019	9
49.009	3
50.016	78
51.024	150
51.077	2
51.528	3
52.03	34
53.004	11
53.04	15
54.038	2
55.019	14
57.527	3
58.53	5
61.009	13
62.016	55
63.024	125
63.089	1
64.022	37
64.529	4
65.038	38
65.526	3
66.038	5
70.53	4
73.009	3
74.016	39
75.024	84
76.03	109
76.096	2
77.04	202
77.106	3
77.161	1
78.044	31
78.527	38
79.029	6
80.015	4
85.009	3
86.016	13
87.023	24
88.027	41
89.04	227
89.114	3
90.038	49
91.054	28
92.057	3
98.017	4
99.016	8
100.026	11
101.039	48
102.043	78
102.116	1
103.054	306
104.052	88
104.133	1
105.055	7
107.051	4
111.016	2
112.025	3
113.039	46
114.043	76
114.127	1
115.054	148
115.142	2
116.051	464
116.531	1
117.056	51
118.066	14
119.048	6
120.051	3
121.067	3
126.037	2
127.046	17
128.051	45
129.058	18
130.066	638
130.565	2
130.637	2
131.053	102
132.046	67
133.053	10
134.059	2
139.042	4
140.05	159
140.151	2
141.056	39
142.066	59
143.038	24
143.073	62
143.142	1
144.045	98
144.081	55
145.063	23
146.065	68
147.069	16
154.066	6
155.065	2
156.045	77
157.051	20
158.061	999
158.681	3
159.064	108
159.572	2
160.067	8
160.26	2
172.076	58
173.084	777
173.343	2
173.66	2
173.736	2
174.087	92
174.672	1
175.09	7
