Mass spectrum: Anilofos; LC-ESI-QTOF; MS2; [M+H]+; CID; CE 30V
Name: Anilofos
Class: Non-natural product
Formula: C13H19ClNO3PS2
Exact mass: 367.023251
SMILES: CC(C)N(C1=CC=C(C=C1)Cl)C(=O)CSP(=S)(OC)OC
InChI: InChI=1S/C13H19ClNO3PS2/c1-10(2)15(12-7-5-11(14)6-8-12)13(16)9-21-19(20,17-3)18-4/h5-8,10H,9H2,1-4H3
Instrument: X500R QTOF (AB Sciex LLC, MA, USA) coupled to ExionLC AD (AB Sciex LLC, MA, USA).
Instrument type: LC-ESI-QTOF
Ms type: MS2
Ion mode: POSITIVE
Collision energy: 30 V
Fragmentation mode: CID
Ionization: ESI
Column name: TSKgel ODS-100S 5 um, 2.1 mm Ã— 250 mm, TOSOH
Retention time: 15.4 min
Precursor m/z: 368.030528
Precursor type: [M+H]+
m/z	relative intensity
78.9941	49
124.9815	861
128.026	94
138.0104	110
142.9925	255
156.9538	497
166.0055	72
170.0729	79
170.9692	999
183.9982	174
198.9644	898
208.0523	122
293.9579	107
