Mass spectrum: (E)-4-(1,1,1,2,2,5,5,6,6,6-decafluorohexen-3-yl)benzyl 2,2,3,3,3-pentafluoropropanoate; GC-EI-TOF; MS; POSITIVE; 70 V
Name: (E)-4-(1,1,1,2,2,5,5,6,6,6-decafluorohexen-3-yl)benzyl 2,2,3,3,3-pentafluoropropanoate
Class: Non-natural compound
Formula: C16H7F15O2
Exact mass: 516.201628
SMILES: FC(F)(F)C(F)(F)/C=C(\c1ccc(COC(=O)C(F)(F)C(F)(F)F)cc1)C(F)(F)C(F)(F)F
InChI: InChI=1S/C16H7F15O2/c17-11(18,14(23,24)25)5-9(12(19,20)15(26,27)28)8-3-1-7(2-4-8)6-33-10(32)13(21,22)16(29,30)31/h1-5H,6H2/b9-5+
Instrument: JMS-T100GCV (JEOL, Akishima, Japan) coupled to Agilent 7890A (Santa Clara, CA, USA) gas chromatograph.
Instrument type: GC-EI-TOF
Ms type: MS
Ion mode: POSITIVE
Ionization: EI
Column name: DB-5MS 122-5532 USA360633H (Agilent, Wilmington, USA) with the length 30.0 m, I.D. 0.25 mm, and thickness 0.25 micrometer.
Retention time: 6.89 min
m/z	relative intensity
28.006	4
29.003	4
30.999	5
39.024	7
43.991	3
49.997	4
50.016	4
51.024	9
62.016	3
63.024	12
65.04	5
68.996	75
74.016	3
75.023	5
76.031	3
77.04	5
78.047	3
81.015	2
82.023	4
87.024	3
88.029	2
89.04	14
90.046	2
92.026	5
99.009	3
99.994	7
101.027	4
102.047	4
103.055	2
106.517	2
107.027	2
107.524	2
109.046	3
112.013	2
113.037	3
114.046	6
115.055	158
116.059	16
117.023	3
118.992	118
119.996	3
120.038	3
125.031	4
126.044	2
127.037	4
131.031	2
132.033	2
133.046	21
134.05	3
137.011	1
138.029	4
140.044	3
142.022	16
142.524	2
143.028	3
144.038	4
145.045	12
146.053	25
146.987	10
147.057	3
149.006	4
150.026	2
151.036	40
152.041	6
153.051	2
157.036	1
162.028	2
163.035	6
164.044	176
165.051	126
166.055	13
169.027	11
170.032	2
171.042	3
175.036	6
177.051	3
181.025	2
182.034	39
183.042	27
184.047	4
187.018	3
193.027	4
195.042	46
196.049	15
200.025	21
201.032	13
202.039	3
213.033	46
214.041	71
215.048	57
216.051	6
219.023	4
221.039	2
225.032	2
231.024	4
232.031	33
233.038	125
234.045	38
235.051	4
245.038	5
250.021	15
251.028	7
252.034	2
253.032	2
263.03	50
264.036	17
265.044	11
266.048	2
269.02	3
281.021	3
282.028	3
283.036	101
284.041	20
285.046	2
301.026	5
313.025	1
333.031	168
334.034	25
335.039	2
351.021	3
352.029	104
353.037	999
354.04	150
354.314	1
354.609	3
355.044	10
356.035	2
367.016	14
368.021	3
369.033	50
370.037	7
371.032	2
397.029	8
487.016	3
488.026	2
516.017	231
517.02	43
518.022	5
