Mass spectrum: Cyproheptadine; LC-ESI-QQ; MS2; ESI; POSITIVE; CID; CE 20 V; [M+H]+
Name: Cyproheptadine
Class: Non-natural product
Formula: C21H21N
Exact mass: 287.167395
SMILES: CN1CCC(=C2C3=CC=CC=C3C=CC4=CC=CC=C42)CC1
InChI: InChI=1S/C21H21N/c1-22-14-12-18(13-15-22)21-19-8-4-2-6-16(19)10-11-17-7-3-5-9-20(17)21/h2-11H,12-15H2,1H3
Instrument: LCMS-8040 coupled to Nexera XR (Shimadzu, Kyoto, Japan).
Instrument type: LC-ESI-QQ
Ms type: MS2
Ion mode: POSITIVE
Collision energy: 20 V
Fragmentation mode: CID
Ionization: ESI
Column name: InertSustain C18 ID 2.1 microm, 2.1 x 100 mm (GL Science, Tokyo, Japan).
Retention time: 9.411 min
Precursor m/z: 288.174672
Precursor type: [M+H]+
m/z	relative intensity
44.3	29
58.3	182
70.2	64
82.3	13
94.3	17
96.2	226
97.2	30
110.2	64
117.3	18
129.2	18
167.2	12
191.1	144
196.2	60
197.2	39
203.2	11
205.2	26
216.2	24
217.2	26
231.2	18
245.3	13
288.2	999
