Mass spectrum: Amezinium; LC-ESI-QQ; MS; ESI; POSITIVE
Name: Amezinium
Class: Non-natural product
Formula: [C11H12N3O]+
Exact mass: 202.097477
SMILES: COC1=[N+](N=CC(=C1)N)C2=CC=CC=C2
InChI: InChI=1S/C11H11N3O/c1-15-11-7-9(12)8-13-14(11)10-5-3-2-4-6-10/h2-8,12H,1H3/p+1
Instrument: LCMS-8040 coupled to Nexera XR (Shimadzu, Kyoto, Japan).
Instrument type: LC-ESI-QQ
Ms type: MS
Ion mode: POSITIVE
Ionization: ESI
Column name: InertSustain C18 ID 2.1 microm, 2.1 x 100 mm (GL Science, Tokyo, Japan).
Retention time: 5.434 min
m/z	relative intensity
114.3	14
121.4	12
202.2	999
203.2	117
