Mass spectrum: Quazepam; LC-ESI-QQ; MS2; ESI; POSITIVE; CE 30 V; [M+H]+
Name: Quazepam
Class: Non-natural product
Formula: C17H11ClF4N2S
Exact mass: 386.02675
SMILES: C1C(=S)N(C2=C(C=C(C=C2)Cl)C(=N1)C3=CC=CC=C3F)CC(F)(F)F
InChI: InChI=1S/C17H11ClF4N2S/c18-10-5-6-14-12(7-10)16(11-3-1-2-4-13(11)19)23-8-15(25)24(14)9-17(20,21)22/h1-7H,8-9H2
Instrument: LCMS-8040 coupled to Nexera XR (Shimadzu, Kyoto, Japan).
Instrument type: LC-ESI-QQ
Ms type: MS2
Ion mode: POSITIVE
Collision energy: 30 V
Ionization: ESI
Column name: InertSustain C18 ID 2.1 microm, 2.1 x 100 mm (GL Science, Tokyo, Japan).
Retention time: 10.211 min
Precursor m/z: 387.03403
Precursor type: [M+H]+
m/z	relative intensity
111	20
112	29
122	10
154	20
164	41
170	15
183	19
192	20
208	20
211	24
223	10
224	20
230	26
231	14
233	18
237	20
244	31
245	10
246	10
257	20
258	218
259	60
263	10
264	12
266	20
272	20
273	15
274	23
276	32
278	41
285	76
293	63
303	80
304	459
313	814
327	10
341	31
342	10
354	999
385	10
387	544
