Mass spectrum: Zonisamide; LC-ESI-QQ; MS; ESI; NEGATIVE
Name: Zonisamide
Class: Non-natural product
Formula: C8H8N2O3S
Exact mass: 212.025556
SMILES: C1=CC=C2C(=C1)C(=NO2)CS(=O)(=O)N
InChI: InChI=1S/C8H8N2O3S/c9-14(11,12)5-7-6-3-1-2-4-8(6)13-10-7/h1-4H,5H2,(H2,9,11,12)
Instrument: LCMS-8040 coupled to Nexera XR (Shimadzu, Kyoto, Japan).
Instrument type: LC-ESI-QQ
Ms type: MS
Ion mode: NEGATIVE
Ionization: ESI
Column name: InertSustain C18 ID 2.1 microm, 2.1 x 100 mm (GL Science, Tokyo, Japan).
Retention time: 5.965 min
m/z	relative intensity
118.1	30
119.1	43
120.0	10
131.0	12
147.1	59
211.0	999
212.0	102
213.0	45
247.0	190
248.1	19
249.0	74
257.0	26
