Mass spectrum: (((3,7-Dimethyloctyl)thio)methyl)diphenylsilane; GC-EI-TOF; MS; POSITIVE; 70 V
Name: (((3,7-Dimethyloctyl)thio)methyl)diphenylsilane
Class: Non-natural compound
Formula: C23H34SSi
Exact mass: 370.215048
SMILES: CC(CCSC[SiH](c1ccccc1)c1ccccc1)CCCC(C)C
InChI: InChI=1S/C23H34SSi/c1-20(2)11-10-12-21(3)17-18-24-19-25(22-13-6-4-7-14-22)23-15-8-5-9-16-23/h4-9,13-16,20-21,25H,10-12,17-19H2,1-3H3
Instrument: JMS-T100GCV (JEOL, Akishima, Japan) coupled to Agilent 7890A (Santa Clara, CA, USA) gas chromatograph.
Instrument type: GC-EI-TOF
Ms type: MS
Ion mode: POSITIVE
Ionization: EI
Column name: HP-5 19091J-413 USD364547H (Agilent, Wilmington, USA) with the length 30.0 m, I.D. 0.32 mm, and thickness 0.25 micrometer.
Retention time: 12.32 min
m/z	relative intensity
27.024	20
28.006	21
28.031	3
29.039	56
31.99	8
39.024	13
41.04	143
41.092	2
42.047	14
43.001	4
43.055	252
43.148	1
44.059	8
44.981	5
45.988	4
46.996	7
51.024	5
52.985	27
53.04	8
53.988	2
54.047	3
55.001	4
55.056	126
55.115	1
56.063	47
57.071	92
58.075	4
58.996	3
60.004	6
61.012	41
65.04	9
67.001	5
67.056	11
68.063	6
69.071	78
70.079	55
71.087	29
74.973	9
75.027	3
76.986	3
77.04	18
78.048	8
79.001	24
79.056	6
80.005	3
81.017	4
81.071	14
82.078	5
83.087	47
84.094	12
85.102	8
87.028	3
89.04	4
90.048	4
91.056	260
91.189	1
92.06	22
93.017	21
93.07	3
94.019	2
95.087	8
97.103	13
101.044	5
103.002	18
104.007	5
105.017	290
105.072	9
106.02	36
107.025	13
108.031	1
111.118	7
112.125	3
115.058	6
117.018	6
118.024	4
119.033	32
120.038	8
121.048	8
129.018	10
130.022	2
131.033	10
136.99	45
137.996	16
139.002	9
139.998	2
140.158	4
143.034	4
145.049	4
149.997	3
151.005	70
152.013	606
152.252	1
152.555	2
152.621	2
153.016	104
154.01	52
154.079	4
155.032	26
156.035	4
157.048	6
165.021	24
165.072	24
166.024	4
166.078	6
167.031	6
167.088	10
168.039	2
169.048	3
171.066	2
179.035	8
180.041	31
181.049	250
181.318	4
182.053	56
183.064	999
183.736	3
184.067	180
184.696	2
185.064	45
185.706	1
186.066	5
187.153	62
188.157	8
189.151	3
193.049	13
194.055	6
195.064	158
195.195	4
196.071	138
197.079	165
198.081	32
199.08	8
207.066	3
213.021	3
215.036	241
216.039	45
216.135	2
217.034	21
218.036	3
227.037	9
228.04	2
229.052	368
230.058	290
230.818	1
231.058	78
232.057	26
233.058	5
241.053	2
244.165	10
245.168	3
257.083	4
277.146	9
278.148	2
279.159	6
291.161	3
299.13	6
313.147	2
322.211	5
323.217	6
327.161	4
355.192	58
356.195	18
357.192	7
369.207	3
370.215	52
371.218	16
372.215	6
