Mass spectrum: 6-(4-{[2-(decanoylamino)ethyl]amino}-4-oxobutanamido)-N,N-dimethylhexan-1-amine N-oxide; ESI-QTOF; MS2; ESI; [M-H]-; CE 50 V
Name: 6-(4-{[2-(decanoylamino)ethyl]amino}-4-oxobutanamido)-N,N-dimethylhexan-1-amine N-oxide
Name: AAO 9-2-2-6
Class: Non-natural product
Formula: C24H48N4O4
Exact mass: 456.367540
SMILES: O=C(NCCNC(=O)CCCCCCCCC)CCC(=O)NCCCCCC[N+]([O-])(C)C
InChI: InChI=1S/C24H48N4O4/c1-4-5-6-7-8-9-12-15-22(29)26-19-20-27-24(31)17-16-23(30)25-18-13-10-11-14-21-28(2,3)32/h4-21H2,1-3H3,(H,25,30)(H,26,29)(H,27,31)
Instrument: X500R QTOF (AB Sciex LLC, MA, USA)
Instrument type: ESI-QTOF
Ms type: MS2
Ion mode: NEGATIVE
Collision energy: 50 V
Fragmentation mode: CID
Ionization: ESI
Precursor m/z: 455.360263 
Precursor type: [M-H]-
m/z	relative intensity
41.99835	47
70.02963	14
72.04526	5
85.04048	6
97.04048	22
98.02458	498
101.07179	17
112.04011	7
113.07171	17
115.05104	8
115.08738	7
122.07213	18
123.05620	18
140.08265	48
141.06671	142
152.10779	118
153.12815	16
158.09321	33
162.09212	15
170.15472	106
179.11868	95
180.10273	498
181.13430	12
182.11839	10
184.17034	85
196.17036	17
197.12929	12
209.12930	20
211.18121	31
213.19693	999
222.16087	24
240.17137	84
269.19789	11
