Mass spectrum: Fenoxaprop-ethyl; LC-ESI-QTOF; MS; POSITIVE
Name: Fenoxaprop-ethyl
Class: Non-natural product
Formula: C18H16ClNO5
Exact mass: 361.0717
SMILES: CCOC(=O)C(C)OC1=CC=C(C=C1)OC2=NC3=C(O2)C=C(C=C3)Cl
InChI: InChI=1S/C18H16ClNO5/c1-3-22-17(21)11(2)23-13-5-7-14(8-6-13)24-18-20-15-9-4-12(19)10-16(15)25-18/h4-11H,3H2,1-2H3
Instrument: X500R QTOF (AB Sciex LLC, MA, USA) coupled to ExionLC AD (AB Sciex LLC, MA, USA).
Instrument type: LC-ESI-QTOF
Ms type: MS
Ion mode: POSITIVE
Ionization: ESI
Column name: TSKgel ODS-100S 5 um, 2.1 mm Ã— 250 mm, TOSOH
Retention time: 16.1 min
m/z	relative intensity
288.0421	18
362.0788	999
363.0824	213
364.0767	368
365.0797	70
