Mass spectrum: S-Ethyl 4-(4'-methoxyphenyl)benzothioate; GC-EI-TOF; MS; POSITIVE; 70 V
Name: S-Ethyl 4-(4'-methoxyphenyl)benzothioate
Class: Non-natural compound
Formula: C16H16O2S
Exact mass: 272.087101
SMILES: COc1ccc(cc1)c1ccc(cc1)C(=O)SCC
InChI: InChI=1S/C16H16O2S/c1-3-19-16(17)14-6-4-12(5-7-14)13-8-10-15(18-2)11-9-13/h4-11H,3H2,1-2H3
Instrument: JMS-T100GCV (JEOL, Akishima, Japan) coupled to Agilent 7890A (Santa Clara, CA, USA) gas chromatograph.
Instrument type: GC-EI-TOF
Ms type: MS
Ion mode: POSITIVE
Ionization: EI
Column name: ZB-1MS 7HM-G011-11 sn:313446 (Agilent, Wilmington, USA) with the length 30.0 m, I.D. 0.32 mm, and thickness 0.25 micrometer.
Retention time: 11.63 min
m/z	relative intensity
27.023	16
28.006	12
29.039	12
31.99	7
34.996	8
39.024	5
41.039	6
43.055	9
51.023	6
55.018	6
55.055	7
57.07	9
61.011	5
62.016	4
63.024	15
64.031	4
67.055	4
69.07	6
69.528	4
70.031	5
71.086	4
74.016	4
75.023	8
76.031	14
77.039	5
83.085	4
87.023	6
88.031	7
89.039	13
90.035	3
102.048	4
105.034	4
105.538	26
106.04	5
113.039	13
114.046	17
115.054	6
122.046	8
126.047	7
127.054	6
128.062	5
129.066	2
138.046	5
139.054	198
140.061	123
141.065	15
150.046	9
151.054	22
152.062	81
153.068	22
154.075	4
167.049	10
168.057	123
168.162	2
169.061	16
171.027	6
172.033	4
180.057	6
181.064	3
182.072	11
183.08	82
184.084	13
196.052	9
200.03	3
207.032	6
209.057	2
211.075	999
211.793	3
212.079	155
212.806	2
213.081	16
215.052	16
216.055	3
272.087	98
272.221	2
273.091	18
274.086	6
