Mass spectrum: Bromazepam; LC-ESI-QQ; MS; ESI; POSITIVE
Name: Bromazepam
Class: Non-natural product
Formula: C14H10BrN3O
Exact mass: 315.00072
SMILES: C1C(=O)NC2=C(C=C(C=C2)Br)C(=N1)C3=CC=CC=N3
InChI: InChI=1S/C14H10BrN3O/c15-9-4-5-11-10(7-9)14(17-8-13(19)18-11)12-3-1-2-6-16-12/h1-7H,8H2,(H,18,19)
Instrument: LCMS-8040 coupled to Nexera XR (Shimadzu, Kyoto, Japan).
Instrument type: LC-ESI-QQ
Ms type: MS
Ion mode: POSITIVE
Ionization: ESI
Column name: InertSustain C18 ID 2.1 microm, 2.1 x 100 mm (GL Science, Tokyo, Japan).
Retention time: 8.299 min
m/z	relative intensity
107.3	14
121.3	11
123.2	14
199.2	10
204.1	11
214.3	17
268.4	12
283.2	15
316.1	999
317.1	110
318.1	905
319.1	202
320.2	13
338.1	53
340.1	88
354.2	26
376.3	11
423.4	11
439.1	11
