Mass spectrum: Hexyl[(pentylthio)methyl]silane; GC-EI-TOF; MS; POSITIVE; 70 V
Name: Hexyl[(pentylthio)methyl]silane
Class: Non-natural compound
Formula: C12H28SSi
Exact mass: 232.168098
SMILES: CCCCCSC[SiH2]CCCCCC
InChI: InChI=1S/C12H28SSi/c1-3-5-7-9-11-14-12-13-10-8-6-4-2/h3-12,14H2,1-2H3
Instrument: JMS-T100GCV (JEOL, Akishima, Japan) coupled to Agilent 7890A (Santa Clara, CA, USA) gas chromatograph.
Instrument type: GC-EI-TOF
Ms type: MS
Ion mode: POSITIVE
Ionization: EI
Column name: HP-5 19091J-413 USD364547H (Agilent, Wilmington, USA) with the length 30.0 m, I.D. 0.32 mm, and thickness 0.25 micrometer.
Retention time: 8.89 min
m/z	relative intensity
27.024	137
27.063	2
27.977	16
28.006	26
28.031	16
28.985	13
29.039	270
29.114	1
30.043	6
31.001	37
31.99	10
39.024	66
40.031	9
41.039	397
41.322	2
41.993	11
42.047	79
42.098	1
43.001	126
43.055	745
43.182	1
43.339	2
43.378	2
43.59	1
44.008	53
44.058	24
44.104	1
44.98	19
45.016	154
45.988	11
46.016	9
46.996	20
52.985	3
53.04	19
54.047	6
55.001	19
55.055	147
55.111	2
56.008	8
56.062	25
57.016	49
57.071	16
58.024	62
58.996	7
59.032	225
59.949	25
60.004	9
60.032	15
60.957	88
61.012	63
61.072	1
61.964	22
62.018	6
62.973	36
63.008	3
63.969	2
64.969	3
67.001	3
67.055	22
68.063	10
69.017	8
69.071	157
70.024	15
70.078	137
71.032	83
71.086	119
71.95	2
72.04	155
72.09	8
72.958	21
73.047	103
73.965	10
74.045	9
74.973	138
75.031	6
75.98	85
76.036	2
76.988	999
77.422	3
77.717	2
77.995	255
78.389	2
78.717	1
79.003	147
79.36	1
79.408	1
79.994	20
80.06	1
81	11
81.071	5
82.079	5
83.032	36
83.087	26
84.039	13
84.094	23
85.048	360
85.1	6
86.055	200
87.059	29
88.053	7
88.989	13
89.043	3
89.996	21
91.004	199
91.139	1
92.011	100
92.077	2
93.013	22
94.009	8
95.032	5
97.048	34
98.054	10
99.063	113
99.138	1
100.071	211
100.213	1
100.989	3
101.072	23
102.068	7
103.004	22
103.059	59
104.011	7
104.062	4
105.02	35
106.024	6
107.017	3
111.063	26
112.07	13
113.079	250
114.087	472
115.005	5
115.089	64
116.085	17
117.02	17
117.075	36
118.026	6
118.082	232
119.035	16
119.086	24
120.04	3
120.078	11
126.087	6
127.094	51
128.102	74
129.108	26
130.106	4
131.036	10
132.04	2
133.051	44
134.054	5
135.048	4
143.036	2
145.051	153
145.321	6
146.053	20
147.067	383
148.072	107
149.066	34
150.07	8
156.134	6
159.067	4
160.074	2
161.083	159
162.089	102
163.093	33
164.088	9
165.093	2
175.098	16
176.101	2
189.114	4
203.13	4
217.145	46
218.147	8
219.143	4
229.145	6
231.16	22
232.168	223
233.17	42
234.166	20
235.167	3
