Mass spectrum: Fluazifop; LC-ESI-QTOF; MS2; [M+H]+; CID; CE 60V
Name: Fluazifop
Class: Non-natural product
Formula: C15H12F3NO4
Exact mass: 327.071842
SMILES: CC(C(=O)O)OC1=CC=C(C=C1)OC2=NC=C(C=C2)C(F)(F)F
InChI: InChI=1S/C15H12F3NO4/c1-9(14(20)21)22-11-3-5-12(6-4-11)23-13-7-2-10(8-19-13)15(16,17)18/h2-9H,1H3,(H,20,21)
Instrument: X500R QTOF (AB Sciex LLC, MA, USA) coupled to ExionLC AD (AB Sciex LLC, MA, USA).
Instrument type: LC-ESI-QTOF
Ms type: MS2
Ion mode: POSITIVE
Collision energy: 60 V
Fragmentation mode: CID
Ionization: ESI
Column name: AQ-C18HP 3 microm, 2.1 mm Ã— 150 mm (GL Science, Tokyo, Japan).
Retention time: 32.5 min
Precursor m/z: 328.079119
Precursor type: [M+H]+
m/z	relative intensity
39.0225	82
65.0384	553
91.0539	738
94.0407	74
103.054	74
126.0147	241
127.0226	266
130.065	124
131.049	427
140.0494	135
141.0573	545
146.0212	594
147.0288	747
151.0348	105
158.0597	223
164.0314	454
168.0439	167
169.0525	120
180.0379	132
190.046	233
198.0523	352
218.0412	334
226.0472	220
227.0554	333
238.0473	638
254.0423	999
