Mass spectrum: Cinosulfuron; LC-ESI-QTOF; MS2; [M+H]+; CID; CE 50V
Name: Cinosulfuron
Class: Non-natural product
Formula: C15H19N5O7S
Exact mass: 413.100519
SMILES: COCCOC1=CC=CC=C1S(=O)(=O)NC(=O)NC2=NC(=NC(=N2)OC)OC
InChI: InChI=1S/C15H19N5O7S/c1-24-8-9-27-10-6-4-5-7-11(10)28(22,23)20-13(21)16-12-17-14(25-2)19-15(18-12)26-3/h4-7H,8-9H2,1-3H3,(H2,16,17,18,19,20,21)
Instrument: X500R QTOF (AB Sciex LLC, MA, USA) coupled to ExionLC AD (AB Sciex LLC, MA, USA).
Instrument type: LC-ESI-QTOF
Ms type: MS2
Ion mode: POSITIVE
Collision energy: 50 V
Fragmentation mode: CID
Ionization: ESI
Column name: AQ-C18HP 3 microm, 2.1 mm Ã— 150 mm (GL Science, Tokyo, Japan).
Retention time: 28.9 min
Precursor m/z: 414.107796
Precursor type: [M+H]+
m/z	relative intensity
43.0288	55
45.0333	57
57.0447	188
58.0287	45
59.0491	104
65.0386	67
69.0082	138
72.0446	55
77.0384	51
83.024	999
91.0543	344
97.0107	437
101.0342	88
109.0102	53
113.0055	481
121.0284	483
125.0056	399
137.0056	375
141.0006	383
157.0723	403
183.0112	513
183.0512	775
