Mass spectrum: Amobarbital; LC-ESI-QQ; MS2; ESI; NEGATIVE; CID; CE 10 V; [M-H]-
Name: Amobarbital
Class: Non-natural product
Formula: C11H18N2O3
Exact mass: 226.131735
SMILES: CCC1(C(=O)NC(=O)NC1=O)CCC(C)C
InChI: InChI=1S/C11H18N2O3/c1-4-11(6-5-7(2)3)8(14)12-10(16)13-9(11)15/h7H,4-6H2,1-3H3,(H2,12,13,14,15,16)
Instrument: LCMS-8040 coupled to Nexera XR (Shimadzu, Kyoto, Japan).
Instrument type: LC-ESI-QQ
Ms type: MS2
Ion mode: NEGATIVE
Collision energy: 10 V
Fragmentation mode: CID
Ionization: ESI
Column name: InertSustain C18 ID 2.1 microm, 2.1 x 100 mm (GL Science, Tokyo, Japan).
Retention time: 8.536 min
Precursor m/z: 225.124458
Precursor type: [M-H]-
m/z	relative intensity
42.1	22
85.0	11
182.1	102
225.2	999
