Mass spectrum: Haloxazolam; LC-ESI-QQ; MS2; ESI; NEGATIVE; CID; CE 40 V; [M+H]+
Name: Haloxazolam
Class: Non-natural product
Formula: C17H14BrFN2O2
Exact mass: 376.022261
SMILES: C1COC2(N1CC(=O)NC3=C2C=C(C=C3)Br)C4=CC=CC=C4F
InChI: InChI=1S/C17H14BrFN2O2/c18-11-5-6-15-13(9-11)17(12-3-1-2-4-14(12)19)21(7-8-23-17)10-16(22)20-15/h1-6,9H,7-8,10H2,(H,20,22)
Instrument: LCMS-8040 coupled to Nexera XR (Shimadzu, Kyoto, Japan).
Instrument type: LC-ESI-QQ
Ms type: MS2
Ion mode: NEGATIVE
Collision energy: 40 V
Fragmentation mode: CID
Ionization: ESI
Column name: InertSustain C18 ID 2.1 microm, 2.1 x 100 mm (GL Science, Tokyo, Japan).
Retention time: 9.644 min
Precursor m/z: 375.014984
Precursor type: [M-H]-
m/z	relative intensity
26.1	22
42.2	22
79.0	999
89.1	22
95.3	22
101.9	11
127.9	11
179.6	11
195.7	29
215.2	11
222.0	71
281.6	22
283.0	48
297.0	69
312.1	22
323.7	11
325.0	162
