Mass spectrum: Indanofan; LC-ESI-QTOF; MS2; [M+H]+; CID; CE 40V
Name: Indanofan
Class: Non-natural product
Formula: C20H17ClO3
Exact mass: 340.086622
SMILES: CCC1(C(=O)C2=CC=CC=C2C1=O)CC3(CO3)C4=CC(=CC=C4)Cl
InChI: InChI=1S/C20H17ClO3/c1-2-19(17(22)15-8-3-4-9-16(15)18(19)23)11-20(12-24-20)13-6-5-7-14(21)10-13/h3-10H,2,11-12H2,1H3
Instrument: X500R QTOF (AB Sciex LLC, MA, USA) coupled to ExionLC AD (AB Sciex LLC, MA, USA).
Instrument type: LC-ESI-QTOF
Ms type: MS2
Ion mode: POSITIVE
Collision energy: 40 V
Fragmentation mode: CID
Ionization: ESI
Column name: TSKgel ODS-100S 5 um, 2.1 mm Ã— 250 mm, TOSOH
Retention time: 15.2 min
Precursor m/z: 341.093899
Precursor type: [M+H]+
m/z	relative intensity
43.0177	30
91.0541	101
103.0542	108
105.0332	50
115.0543	116
117.0698	79
125.0153	240
128.062	123
129.0696	60
131.0492	70
131.0854	308
139.0308	113
141.0698	166
145.0647	121
159.044	210
159.08	79
169.065	205
173.0598	225
175.0752	999
187.0757	75
