Mass spectrum: Acetazolamide; LC-ESI-QQ; MS; ESI; POSITIVE
Name: Acetazolamide
Class: Non-natural product
Formula: C4H6N4O3S2
Exact mass: 221.988117
SMILES: CC(=O)NC1=NN=C(S1)S(=O)(=O)N
InChI: InChI=1S/C4H6N4O3S2/c1-2(9)6-3-7-8-4(12-3)13(5,10)11/h1H3,(H2,5,10,11)(H,6,7,9)
Instrument: LCMS-8040 coupled to Nexera XR (Shimadzu, Kyoto, Japan).
Instrument type: LC-ESI-QQ
Ms type: MS
Ion mode: POSITIVE
Ionization: ESI
Column name: InertSustain C18 ID 2.1 microm, 2.1 x 100 mm (GL Science, Tokyo, Japan).
Retention time: 4.122  min
m/z	relative intensity
181.1	24
223.1	999
224.1	79
225.1	93
240.1	23
245.1	423
246.1	28
247.1	35
261.0	130
263.1	23
445.1	34
467.1	96
468.1	15
469.1	17
499.0	13
501.0	13
535.0	11
537.0	12
