Mass spectrum: Chlorxuron; LC-ESI-QTOF; MS2; [M+H]+; CID; CE 50V
Name: Chlorxuron
Class: Non-natural product
Formula: C15H15ClN2O2
Exact mass: 290.082205
SMILES: CN(C)C(=O)NC1=CC=C(C=C1)OC2=CC=C(C=C2)Cl
InChI: InChI=1S/C15H15ClN2O2/c1-18(2)15(19)17-12-5-9-14(10-6-12)20-13-7-3-11(16)4-8-13/h3-10H,1-2H3,(H,17,19)
Instrument: X500R QTOF (AB Sciex LLC, MA, USA) coupled to ExionLC AD (AB Sciex LLC, MA, USA).
Instrument type: LC-ESI-QTOF
Ms type: MS2
Ion mode: POSITIVE
Collision energy: 50 V
Fragmentation mode: CID
Ionization: ESI
Column name: TSKgel ODS-100S 5 um, 2.1 mm Ã— 250 mm, TOSOH
Retention time: 15.0 min
Precursor m/z: 291.089482
Precursor type: [M+H]+
m/z	relative intensity
30.0336	50
42.0337	12
44.0492	42
46.0649	399
56.0129	33
72.0441	999
75.0228	22
106.065	27
110.9995	52
118.0649	42
127.0541	23
128.0622	130
139.0059	82
154.0656	30
155.0605	55
155.0725	27
163.0308	104
218.0374	71
