Mass spectrum: Nitrazepam; LC-ESI-QQ; MS; ESI; POSITIVE
Name: Nitrazepam
Class: Non-natural product
Formula: C15H11N3O3
Exact mass: 281.08003
SMILES: C1C(=O)NC2=C(C=C(C=C2)[N+](=O)[O-])C(=N1)C3=CC=CC=C3
InChI: InChI=1S/C15H11N3O3/c19-14-9-16-15(10-4-2-1-3-5-10)12-8-11(18(20)21)6-7-13(12)17-14/h1-8H,9H2,(H,17,19)
Instrument: LCMS-8040 coupled to Nexera XR (Shimadzu, Kyoto, Japan).
Instrument type: LC-ESI-QQ
Ms type: MS
Ion mode: POSITIVE
Ionization: ESI
Column name: InertSustain C18 ID 2.1 microm, 2.1 x 100 mm (GL Science, Tokyo, Japan).
Retention time: 8.592 min
m/z	relative intensity
102.2	10
244.3	10
282.2	999
283.2	179
284.2	28
300.4	10
