Mass spectrum: Chlordiazepoxide; LC-ESI-QQ; MS2; ESI; POSITIVE; CE 40 V; [M+H]+
Name: Chlordiazepoxide
Class: Non-natural product
Formula: C16H14ClN3O
Exact mass: 299.08252
SMILES: CN=C1CN(C(=C2C=C(C=CC2=N1)Cl)C3=CC=CC=C3)O
InChI: InChI=1S/C16H14ClN3O/c1-18-15-10-20(21)16(11-5-3-2-4-6-11)13-9-12(17)7-8-14(13)19-15/h2-9,21H,10H2,1H3
Instrument: LCMS-8040 coupled to Nexera XR (Shimadzu, Kyoto, Japan).
Instrument type: LC-ESI-QQ
Ms type: MS2
Ion mode: POSITIVE
Collision energy: 40 V
Ionization: ESI
Column name: InertSustain C18 ID 2.1 microm, 2.1 x 100 mm (GL Science, Tokyo, Japan).
Retention time: 9.393 min
Precursor m/z: 300.08981
Precursor type: [M+H]+
m/z	relative intensity
57	499
77	36
89	82
111	52
117	17
124	73
136	20
138	24
151	27
152	23
163	130
165	211
180	18
190	28
192	288
199	21
203	29
205	19
206	55
214	26
216	74
218	44
219	45
220	35
224	30
227	999
231	12
232	15
238	38
241	114
246	41
247	131
248	11
251	43
252	97
253	30
254	29
255	52
265	26
267	41
269	55
282	112
