Mass spectrum: Talipexole; LC-ESI-QQ; MS; ESI; POSITIVE
Name: Talipexole
Class: Non-natural product
Formula: C10H15N3S
Exact mass: 209.098656
SMILES: C=CCN1CCC2=C(CC1)SC(=N2)N
InChI: InChI=1S/C10H15N3S/c1-2-5-13-6-3-8-9(4-7-13)14-10(11)12-8/h2H,1,3-7H2,(H2,11,12)
Instrument: LCMS-8040 coupled to Nexera XR (Shimadzu, Kyoto, Japan).
Instrument type: LC-ESI-QQ
Ms type: MS
Ion mode: POSITIVE
Ionization: ESI
Column name: InertSustain C18 ID 2.1 microm, 2.1 x 100 mm (GL Science, Tokyo, Japan).
Retention time: 4.719 min
m/z	relative intensity
121.1	15
210.2	999
211.2	128
212.2	51
