Mass spectrum: Brotizolam; LC-ESI-QQ; MS2; ESI; POSITIVE; CID; CE 50 V; [M+H]+ Isotopolog ion
Name: Brotizolam
Class: Non-natural product
Formula: C15H10BrClN4S
Exact mass: 391.949792
SMILES: CC1=NN=C2N1C3=C(C=C(S3)Br)C(=NC2)C4=CC=CC=C4Cl
InChI: InChI=1S/C15H10BrClN4S/c1-8-19-20-13-7-18-14(9-4-2-3-5-11(9)17)10-6-12(16)22-15(10)21(8)13/h2-6H,7H2,1H3
Instrument: LCMS-8040 coupled to Nexera XR (Shimadzu, Kyoto, Japan).
Instrument type: LC-ESI-QQ
Ms type: MS2
Ion mode: POSITIVE
Collision energy: 50 V
Fragmentation mode: CID
Ionization: ESI
Column name: InertSustain C18 ID 2.1 microm, 2.1 x 100 mm (GL Science, Tokyo, Japan).
Retention time: 8.988 min
Precursor m/z: 394.955022
Precursor type: [M+H]+
m/z	relative intensity
42.3	61
52.2	14
56.3	20
57.3	18
58.2	25
63.3	86
66.3	299
69.4	24
76.3	50
78.2	66
82.3	25
85.3	37
93.3	14
95.3	14
96.1	14
102.2	39
103.1	26
104.2	31
105.9	14
108.2	146
109.2	582
110.2	14
111.1	25
112.3	13
114.1	28
115.2	37
117.3	38
119.2	41
121.1	37
122.2	44
123.1	54
127.2	14
129.3	20
130.2	14
132.2	44
133.1	226
134.1	52
135.2	127
136.2	188
137.0	32
138.1	159
139.2	68
140.1	44
141.2	14
147.0	24
148.0	24
149.1	19
151.2	88
152.2	66
153.3	14
153.9	14
155.1	18
157.2	14
159.4	10
162.0	98
164.1	41
165.0	42
166.2	196
167.3	20
168.2	21
171.2	244
173.0	28
174.0	14
176.1	100
177.1	215
178.1	143
179.1	211
180.1	35
182.1	32
183.1	150
184.1	103
185.1	18
185.9	19
187.1	64
188.1	117
190.0	190
191.2	59
192.2	71
194.2	46
194.9	19
196.2	214
197.0	19
198.1	14
200.0	40
201.2	95
202.0	105
203.1	77
204.1	96
205.1	83
206.3	109
207.1	27
209.2	335
210.1	999
211.1	471
212.0	50
213.1	69
214.0	108
215.1	45
216.1	73
217.1	24
218.2	47
219.1	115
220.0	32
220.9	43
222.1	68
223.1	165
224.2	186
225.2	57
226.1	156
227.2	66
228.2	45
229.3	27
230.2	55
231.1	48
232.7	26
235.2	213
236.1	47
237.2	15
238.3	46
240.1	26
241.1	59
242.1	38
243.1	60
245.0	175
246.1	54
247.1	83
248.1	50
249.2	21
251.2	46
253.0	71
256.2	31
257.0	52
258.2	26
259.2	157
260.1	45
261.2	23
262.9	14
264.2	14
269.2	27
271.2	110
273.0	37
277.1	24
278.2	26
279.1	132
281.1	13
282.2	180
284.2	45
285.0	40
287.1	30
289.1	17
290.0	35
291.0	133
298.3	14
299.2	55
303.0	20
310.8	14
314.0	86
315.8	27
316.5	18
330.0	41
331.1	14
331.9	25
340.1	33
340.8	14
358.2	21
365.9	25
366.8	41
392.8	55
394.8	23
