Mass spectrum: Haloxazolam; LC-ESI-QQ; MS; ESI; NEGATIVE
Name: Haloxazolam
Class: Non-natural product
Formula: C17H14BrFN2O2
Exact mass: 376.022261
SMILES: C1COC2(N1CC(=O)NC3=C2C=C(C=C3)Br)C4=CC=CC=C4F
InChI: InChI=1S/C17H14BrFN2O2/c18-11-5-6-15-13(9-11)17(12-3-1-2-4-14(12)19)21(7-8-23-17)10-16(22)20-15/h1-6,9H,7-8,10H2,(H,20,22)
Instrument: LCMS-8040 coupled to Nexera XR (Shimadzu, Kyoto, Japan).
Instrument type: LC-ESI-QQ
Ms type: MS
Ion mode: NEGATIVE
Ionization: ESI
Column name: InertSustain C18 ID 2.1 microm, 2.1 x 100 mm (GL Science, Tokyo, Japan).
Retention time: 9.644 min
m/z	relative intensity
100.9	11
272.0	43
274.0	41
325.0	44
327.0	36
345.1	27
347.1	29
375.1	999
377.1	894
378.1	165
379.1	17
393.1	12
411.1	16
413.0	21
415.0	10
421.1	16
423.1	13
446.1	43
448.1	49
