Mass spectrum: Indometacin; LC-ESI-QQ; MS2; ESI; NEGATIVE; CID; CE 30 V; [M-H]-
Name: Indometacin
Class: Non-natural product
Formula: C19H16ClNO4
Exact mass: 357.076783
SMILES: CC1=C(C2=C(N1C(=O)C3=CC=C(C=C3)Cl)C=CC(=C2)OC)CC(=O)O
InChI: InChI=1S/C19H16ClNO4/c1-11-15(10-18(22)23)16-9-14(25-2)7-8-17(16)21(11)19(24)12-3-5-13(20)6-4-12/h3-9H,10H2,1-2H3,(H,22,23)
Instrument: LCMS-8040 coupled to Nexera XR (Shimadzu, Kyoto, Japan).
Instrument type: LC-ESI-QQ
Ms type: MS2
Ion mode: NEGATIVE
Collision energy: 30 V
Fragmentation mode: CID
Ionization: ESI
Column name: InertSustain C18 ID 2.1 microm, 2.1 x 100 mm (GL Science, Tokyo, Japan).
Retention time: 9.281 min
Precursor m/z: 356.069506
Precursor type: [M-H]-
m/z	relative intensity
35.1	47
111.0	294
141.7	11
144.0	11
153.1	23
156.9	87
158.0	548
172.0	13
255.0	381
269.1	159
270.0	13
279.3	16
282.0	999
293.9	24
297.0	438
