Mass spectrum: Oxazolam; LC-ESI-QQ; MS2; ESI; POSITIVE; CE 30 V; [M+H]+
Name: Oxazolam
Class: Non-natural product
Formula: C18H17ClN2O2
Exact mass: 328.09785
SMILES: CC1CN2CC(=O)NC3=C(C2(O1)C4=CC=CC=C4)C=C(C=C3)Cl
InChI: InChI=1S/C18H17ClN2O2/c1-12-10-21-11-17(22)20-16-8-7-14(19)9-15(16)18(21,23-12)13-5-3-2-4-6-13/h2-9,12H,10-11H2,1H3,(H,20,22)
Instrument: LCMS-8040 coupled to Nexera XR (Shimadzu, Kyoto, Japan).
Instrument type: LC-ESI-QQ
Ms type: MS2
Ion mode: POSITIVE
Collision energy: 30 V
Ionization: ESI
Column name: InertSustain C18 ID 2.1 microm, 2.1 x 100 mm (GL Science, Tokyo, Japan).
Retention time: 10.122, 10.197 min (broad two peaks)
Precursor m/z: 329.10513
Precursor type: [M+H]+
m/z	relative intensity
28	10
39	11
41	29
42	45
59	177
70	186
88	13
91	67
104	34
105	65
106	21
116	46
117	14
118	32
121	11
133	20
138	11
140	438
144	34
158	23
164	16
165	182
166	44
168	15
181	20
190	11
193	62
206	11
208	181
216	20
217	14
218	17
220	13
226	53
227	10
238	14
242	31
243	63
253	51
254	29
256	10
271	999
272	20
285	23
329	52
