Mass spectrum: Acetylpheneturide; LC-ESI-QQ; MS; ESI; POSITIVE
Name: Acetylpheneturide
Class: Non-natural product
Formula: C13H16N2O3
Exact mass: 248.116085
SMILES: CCC(C1=CC=CC=C1)C(=O)NC(=O)NC(=O)C
InChI: InChI=1S/C13H16N2O3/c1-3-11(10-7-5-4-6-8-10)12(17)15-13(18)14-9(2)16/h4-8,11H,3H2,1-2H3,(H2,14,15,16,17,18)
Instrument: LCMS-8040 coupled to Nexera XR (Shimadzu, Kyoto, Japan).
Instrument type: LC-ESI-QQ
Ms type: MS
Ion mode: POSITIVE
Ionization: ESI
Column name: InertSustain C18 ID 2.1 microm, 2.1 x 100 mm (GL Science, Tokyo, Japan).
Retention time: 8.901 min
m/z	relative intensity
103.2	16
119.2	114
120.3	11
147.2	55
207.2	10
249.2	999
250.2	167
251.3	15
255.3	22
266.2	63
271.2	259
272.2	28
287.2	77
288.2	13
503.4	38
519.3	106
520.3	33
