Mass spectrum: Triazolam; LC-ESI-QQ; MS2; ESI; POSITIVE; CID; CE 40 V; [M+H]+
Name: Triazolam
Class: Non-natural product
Formula: C17H12Cl2N4
Exact mass: 342.04389
SMILES: CC1=NN=C2N1C3=C(C=C(C=C3)Cl)C(=NC2)C4=CC=CC=C4Cl
InChI: InChI=1S/C17H12Cl2N4/c1-10-21-22-16-9-20-17(12-4-2-3-5-14(12)19)13-8-11(18)6-7-15(13)23(10)16/h2-8H,9H2,1H3
Instrument: LCMS-8040 coupled to Nexera XR (Shimadzu, Kyoto, Japan).
Instrument type: LC-ESI-QQ
Ms type: MS2
Ion mode: POSITIVE
Collision energy: 40 V
Fragmentation mode: CID
Ionization: ESI
Column name: InertSustain C18 ID 2.1 microm, 2.1 x 100 mm (GL Science, Tokyo, Japan).
Retention time: 8.845 min
Precursor m/z: 343.05116
Precursor type: [M+H]+
m/z	relative intensity
42.3	14
57.3	27
66.2	110
77.2	13
101.3	29
102.2	97
103.1	34
111.2	119
115.2	22
127.2	23
130.1	31
135.1	13
136.0	12
137.1	19
138.1	172
140.1	12
142.3	14
151.2	11
152.0	16
162.2	40
163.0	64
165.1	212
171.1	68
176.1	17
177.2	26
186.1	15
190.3	28
198.0	11
202.1	16
203.1	124
204.1	149
205.2	74
206.2	12
212.1	29
216.1	20
217.1	56
218.0	15
225.2	45
232.2	29
236.9	13
239.1	999
240.1	29
241.2	13
243.1	19
244.1	27
245.2	21
250.1	31
252.0	44
253.2	180
258.0	31
261.0	16
265.1	35
267.1	24
272.3	29
273.2	30
274.1	18
275.2	10
279.2	60
280.2	61
281.1	15
289.1	29
308.1	249
315.1	228
342.3	17
343.1	13
