Mass spectrum: Chloridazon; LC-ESI-QTOF; MS2; [M+H]+; CID; CE 40V
Name: Chloridazon
Class: Non-natural product
Formula: C10H8ClN3O
Exact mass: 221.03559
SMILES: C1=CC=C(C=C1)N2C(=O)C(=C(C=N2)N)Cl
InChI: InChI=1S/C10H8ClN3O/c11-9-8(12)6-13-14(10(9)15)7-4-2-1-3-5-7/h1-6H,12H2
Instrument: X500R QTOF (AB Sciex LLC, MA, USA) coupled to ExionLC AD (AB Sciex LLC, MA, USA).
Instrument type: LC-ESI-QTOF
Ms type: MS2
Ion mode: POSITIVE
Collision energy: 40 V
Fragmentation mode: CID
Ionization: ESI
Column name: TSKgel ODS-100S 5 um, 2.1 mm Ã— 250 mm, TOSOH
Retention time: 11.7 min
Precursor m/z: 222.042867
Precursor type: [M+H]+
m/z	relative intensity
39.0227	35
51.0228	81
53.0382	45
55.0288	71
65.0385	499
77.0384	999
87.9947	208
92.0493	876
93.0572	178
94.0649	208
95.0488	88
100.9898	265
104.0493	651
105.0447	114
128.985	267
130.0651	129
146.0115	433
150.0106	92
193.0289	106
222.043	337
