Mass spectrum: Etizolam; LC-ESI-QQ; MS; ESI; POSITIVE
Name: Etizolam
Class: Non-natural product
Formula: C17H15ClN4S
Exact mass: 342.07058
SMILES: CCC1=CC2=C(S1)N3C(=NN=C3CN=C2C4=CC=CC=C4Cl)C
InChI: InChI=1S/C17H15ClN4S/c1-3-11-8-13-16(12-6-4-5-7-14(12)18)19-9-15-21-20-10(2)22(15)17(13)23-11/h4-8H,3,9H2,1-2H3
Instrument: LCMS-8040 coupled to Nexera XR (Shimadzu, Kyoro, Japan).
Instrument type: LC-ESI-QQ
Ms type: MS
Ion mode: POSITIVE
Ionization: ESI
Column name: InertSustain C18 ID 2.1 microm, 2.1 x 100 mm (GL Science, Tokyo, Japan).
Retention time: 9.049 min
m/z	relative intensity
228	22
343	999
344	177
345	332
346	63
347	15
