Mass spectrum: Brotizolam; LC-ESI-QQ; MS2; ESI; POSITIVE; CID; CE 30 V; [M+H]+
Name: Brotizolam
Class: Non-natural product
Formula: C15H10BrClN4S
Exact mass: 391.949792
SMILES: CC1=NN=C2N1C3=C(C=C(S3)Br)C(=NC2)C4=CC=CC=C4Cl
InChI: InChI=1S/C15H10BrClN4S/c1-8-19-20-13-7-18-14(9-4-2-3-5-11(9)17)10-6-12(16)22-15(10)21(8)13/h2-6H,7H2,1H3
Instrument: LCMS-8040 coupled to Nexera XR (Shimadzu, Kyoto, Japan).
Instrument type: LC-ESI-QQ
Ms type: MS2
Ion mode: POSITIVE
Collision energy: 30 V
Fragmentation mode: CID
Ionization: ESI
Column name: InertSustain C18 ID 2.1 microm, 2.1 x 100 mm (GL Science, Tokyo, Japan).
Retention time: 8.988 min
Precursor m/z: 392.957069
Precursor type: [M+H]+
m/z	relative intensity
39.9	12
57.2	39
84.3	12
107.5	12
109.2	12
132.3	12
135.2	12
136.1	95
137.0	24
140.0	61
149.5	25
161.6	28
165.1	12
171.2	39
176.1	24
177.1	251
188.2	97
191.1	24
196.3	12
200.1	12
206.2	16
209.2	30
210.1	58
211.3	23
214.0	55
215.0	23
218.3	12
219.2	16
222.3	12
223.8	24
226.3	17
227.8	12
230.9	12
232.2	22
235.8	29
237.1	26
238.0	67
239.1	24
240.0	12
241.0	56
242.9	12
244.1	82
245.0	141
246.3	118
249.1	39
250.1	12
251.3	22
252.2	12
253.1	12
256.0	63
257.2	44
259.2	184
269.2	63
270.1	18
271.1	35
272.1	33
273.0	37
278.2	43
279.2	443
282.1	367
285.2	106
286.4	24
289.2	53
297.2	22
314.2	999
321.7	18
324.0	12
324.8	17
334.9	12
357.2	24
358.2	11
365.1	81
393.1	217
