Mass spectrum: Bromazepam; LC-ESI-QQ; MS2; ESI; POSITIVE; CID: CE 50 V; [M+H]+
Name: Bromazepam
Class: Non-natural product
Formula: C14H10BrN3O
Exact mass: 315.00072
SMILES: C1C(=O)NC2=C(C=C(C=C2)Br)C(=N1)C3=CC=CC=N3
InChI: InChI=1S/C14H10BrN3O/c15-9-4-5-11-10(7-9)14(17-8-13(19)18-11)12-3-1-2-6-16-12/h1-7H,8H2,(H,18,19)
Instrument: LCMS-8040 coupled to Nexera XR (Shimadzu, Kyoto, Japan).
Instrument type: LC-ESI-QQ
Ms type: MS2
Ion mode: POSITIVE
Collision energy: 50 V
Fragmentation mode: CID
Ionization: ESI
Column name: InertSustain C18 ID 2.1 microm, 2.1 x 100 mm (GL Science, Tokyo, Japan).
Retention time: 8.299 min
Precursor m/z: 316.00799
Precursor type: [M+H]+
m/z	relative intensity
27.4	14
43.4	28
51.3	14
53.3	28
65.4	47
76.6	28
77.3	68
78.2	143
79.3	191
80.3	267
90.2	51
91.4	26
103.1	47
104.2	406
105.1	167
106.2	28
115.2	14
120.9	28
127.4	27
128.1	12
130.1	459
131.2	88
140.4	14
141.1	28
142.8	28
153.2	273
154.2	437
155.1	373
157.1	14
163.9	84
166.1	99
167.1	106
169.1	88
179.1	132
180.0	95
181.2	995
182.1	999
184.0	88
191.9	28
193.1	91
205.8	31
207.2	465
208.3	775
209.1	371
211.8	28
217.7	28
222.0	14
232.0	34
236.9	28
244.7	50
259.1	386
260.1	252
286.3	28
315.7	50
317.7	56
