Mass spectrum: Cyproheptadine; LC-ESI-QQ; MS2; ESI; POSITIVE; CID; CE 40 V; [M+H]+
Name: Cyproheptadine
Class: Non-natural product
Formula: C21H21N
Exact mass: 287.167395
SMILES: CN1CCC(=C2C3=CC=CC=C3C=CC4=CC=CC=C42)CC1
InChI: InChI=1S/C21H21N/c1-22-14-12-18(13-15-22)21-19-8-4-2-6-16(19)10-11-17-7-3-5-9-20(17)21/h2-11H,12-15H2,1H3
Instrument: LCMS-8040 coupled to Nexera XR (Shimadzu, Kyoto, Japan).
Instrument type: LC-ESI-QQ
Ms type: MS2
Ion mode: POSITIVE
Collision energy: 40 V
Fragmentation mode: CID
Ionization: ESI
Column name: InertSustain C18 ID 2.1 microm, 2.1 x 100 mm (GL Science, Tokyo, Japan).
Retention time: 9.411 min
Precursor m/z: 288.174672
Precursor type: [M+H]+
m/z	relative intensity
41.3	64
42.3	130
44.3	199
55.3	42
58.3	294
65.4	22
67.2	213
68.3	131
69.3	21
70.3	231
77.2	19
79.3	54
80.2	50
81.2	83
82.3	644
88.3	13
91.2	185
94.3	137
95.3	36
96.3	999
97.2	118
103.2	12
105.1	22
108.3	14
110.2	65
115.1	215
117.3	169
127.1	36
128.2	96
129.2	107
141.2	58
152.1	51
153.1	86
154.2	23
165.1	112
166.2	13
167.0	36
168.0	13
176.0	13
178.1	112
179.2	60
189.2	106
190.2	101
191.1	956
193.1	22
196.3	90
202.1	353
203.1	210
204.1	84
205.1	33
215.2	543
216.2	106
217.1	82
227.1	32
228.1	73
229.1	81
230.3	26
239.1	13
241.1	31
243.0	14
258.1	28
288.1	29
