Mass spectrum: Methomyl; LC-ESI-QTOF; MS; POSITIVE
Name: Methomyl
Class: Non-natural product
Formula: C5H10N2O2S
Exact mass: 162.046299
SMILES: CC(=NOC(=O)NC)SC
InChI: InChI=1S/C5H10N2O2S/c1-4(10-3)7-9-5(8)6-2/h1-3H3,(H,6,8)
Instrument: X500R QTOF (AB Sciex LLC, MA, USA) coupled to ExionLC AD (AB Sciex LLC, MA, USA).
Instrument type: LC-ESI-QTOF
Ms type: MS
Ion mode: POSITIVE
Ionization: ESI
Column name: TSKgel ODS-100S 5 um, 2.1 mm Ã— 250 mm, TOSOH
Retention time: 10.1 min
m/z	relative intensity
163.0534	999
164.0564	81
