Mass spectrum: 5-(4-{[2-(tetradecanoylamino)ethyl]amino}-4-oxobutanamido)-N,N-dimethylpentan-1-amine N-oxide; ESI-QTOF; MS2; ESI; [M+H]+; CE 40 V
Name: 5-(4-{[2-(tetradecanoylamino)ethyl]amino}-4-oxobutanamido)-N,N-dimethylpentan-1-amine N-oxide
Name: AAO 13-2-2-5
Class: Non-natural product
Formula: C27H54N4O4
Exact mass: 498.41449
SMILES: O=C(NCCNC(=O)CCCCCCCCCCCCC)CCC(=O)NCCCCC[N+]([O-])(C)C
InChI: InChI=1S/C27H54N4O4/c1-4-5-6-7-8-9-10-11-12-13-15-18-25(32)29-22-23-30-27(34)20-19-26(33)28-21-16-14-17-24-31(2,3)35/h4-24H2,1-3H3,(H,28,33)(H,29,32)(H,30,34)
Instrument: X500R QTOF (AB Sciex LLC, MA, USA)
Instrument type: ESI-QTOF
Ms type: MS2
Ion mode: POSITIVE
Collision energy: 40 V
Fragmentation mode: CID
Ionization: ESI
Precursor m/z: 499.42177 
Precursor type: [M+H]+
m/z	relative intensity
58.06479	26
69.06949	4
84.08042	37
86.09605	55
98.09603	5
100.03893	74
100.11162	8
112.03888	10
114.12732	14
125.07053	41
126.05456	33
140.10657	6
142.09706	18
142.12201	5
143.08107	131
147.14876	13
167.11746	8
168.10149	473
185.12801	48
210.15951	38
211.14363	15
213.15929	7
228.17019	22
229.15420	43
253.26321	22
254.24702	999
271.27377	104
289.22289	13
353.27908	156
420.35756	59
438.36799	115
481.41012	20
499.42036	883
