Mass spectrum: Imidacloprid; LC-ESI-QTOF; MS2; [M+H]+; CID; CE 20V
Name: Imidacloprid
Class: Non-natural product
Formula: C9H10ClN5O2
Exact mass: 255.052302
SMILES: C1CN(C(=N[N+](=O)[O-])N1)CC2=CN=C(C=C2)Cl
InChI: InChI=1S/C9H10ClN5O2/c10-8-2-1-7(5-12-8)6-14-4-3-11-9(14)13-15(16)17/h1-2,5H,3-4,6H2,(H,11,13)
Instrument: X500R QTOF (AB Sciex LLC, MA, USA) coupled to ExionLC AD (AB Sciex LLC, MA, USA).
Instrument type: LC-ESI-QTOF
Ms type: MS2
Ion mode: POSITIVE
Collision energy: 20 V
Fragmentation mode: CID
Ionization: ESI
Column name: TSKgel ODS-100S 5 um, 2.1 mm Ã— 250 mm, TOSOH
Retention time: 11.1 min
Precursor m/z: 256.059579
Precursor type: [M+H]+
m/z	relative intensity
84.0556	125
128.0263	109
174.0903	150
175.0978	855
209.059	999
210.0668	192
212.0589	211
256.0601	94
