Mass spectrum: Simeconazole; LC-ESI-QTOF; MS2; [M+H]+; CID; CE 50 V
Name: Simeconazole
Class: Non-natural product
Formula: C14H20FN3OSi
Exact mass: 293.135967
SMILES: C[Si](C)(C)CC(CN1C=NC=N1)(C2=CC=C(C=C2)F)O
InChI: InChI=1S/C14H20FN3OSi/c1-20(2,3)9-14(19,8-18-11-16-10-17-18)12-4-6-13(15)7-5-12/h4-7,10-11,19H,8-9H2,1-3H3
Instrument: X500R QTOF (AB Sciex LLC, MA, USA) coupled to ExionLC AD (AB Sciex LLC, MA, USA).
Instrument type: LC-ESI-QTOF
Ms type: MS2
Ion mode: POSITIVE
Collision energy: 50 V
Fragmentation mode: CID
Ionization: ESI
Column name: TSKgel ODS-100S 5 um, 2.1 mm Ã— 250 mm, TOSOH
Retention time: 15.1 min
Precursor m/z: 294.143244
Precursor type: [M+H]+
m/z	relative intensity
42.9994	48
43.0288	78
45.0152	148
70.0396	998
73.0466	578
75.026	102
83.0292	50
89.0389	44
91.0564	56
109.0448	532
115.0541	999
133.0449	561
135.0605	370
