Mass spectrum: ((Pentylthio)methylene)bis(phenylsilane); GC-EI-TOF; MS; POSITIVE; 70 V
Name: ((Pentylthio)methylene)bis(phenylsilane)
Class: Non-natural compound
Formula: C18H26SSi2
Exact mass: 330.129375
SMILES: CCCCCSC([SiH2]c1ccccc1)[SiH2]c1ccccc1
InChI: InChI=1S/C18H26SSi2/c1-2-3-10-15-19-18(20-16-11-6-4-7-12-16)21-17-13-8-5-9-14-17/h4-9,11-14,18H,2-3,10,15,20-21H2,1H3
Instrument: JMS-T100GCV (JEOL, Akishima, Japan) coupled to Agilent 7890A (Santa Clara, CA, USA) gas chromatograph.
Instrument type: GC-EI-TOF
Ms type: MS
Ion mode: POSITIVE
Ionization: EI
Column name: HP-5 19091J-413 USD364547H (Agilent, Wilmington, USA) with the length 30.0 m, I.D. 0.32 mm, and thickness 0.25 micrometer.
Retention time: 11.34 min
m/z	relative intensity
27.024	65
28.006	177
28.031	7
28.985	50
29.039	140
29.066	4
29.084	3
31.99	71
39.024	34
39.964	6
40.031	5
41.04	191
41.071	3
41.092	3
41.994	5
42.047	38
43.001	42
43.055	426
43.992	5
44.058	14
44.98	7
45.016	7
46.996	8
50.016	5
51.024	14
52.031	6
52.985	71
53.04	12
53.988	8
55.001	25
55.055	58
60.004	3
60.958	20
61.012	5
65.04	19
65.994	6
67.001	21
67.055	8
68.063	11
68.963	15
69.017	5
69.071	35
69.971	11
70.078	8
71.087	15
72.958	15
73.965	11
74.973	86
75.979	16
76.982	10
77.04	64
77.99	6
78.047	38
79.001	51
79.055	40
80.006	9
81.017	64
82.019	7
89.04	8
89.996	5
90.048	13
91.005	5
91.056	349
91.188	3
92.009	6
92.061	41
93.017	56
93.071	35
94.019	7
95.032	16
96.039	4
97.047	5
101.043	11
102.95	21
103.002	34
103.057	4
103.958	168
104.007	9
104.064	7
104.962	33
105.017	582
105.955	20
106.02	78
106.069	3
106.967	3
107.033	416
108.035	49
109.031	17
115.054	6
117.018	21
117.068	4
118.025	14
119.033	174
120.04	76
121.048	187
122.05	25
123.046	7
129.019	9
130.015	4
131.034	17
131.988	4
132.044	3
132.994	10
133.044	4
136.989	98
137.993	19
139.004	38
140.004	6
141.002	3
143.033	7
144.994	48
145.05	12
146	21
146.056	9
147.01	97
147.121	4
148.017	333
149.022	106
149.123	3
150.017	32
151.006	106
152.012	84
153.02	149
153.124	4
154.021	23
155.027	20
157.049	4
165.02	5
165.071	22
166.079	4
166.982	119
167.034	15
167.088	5
167.984	23
168.992	23
169.048	6
169.997	4
170.995	3
178.982	22
179.035	11
179.989	29
180.041	18
180.997	999
181.313	3
181.624	4
181.74	2
182	253
182.553	3
182.585	3
182.641	4
182.996	128
183.064	966
183.654	6
183.998	26
184.067	166
184.604	3
184.66	3
184.739	4
185	7
185.063	42
185.145	3
185.214	3
186.07	4
186.239	3
193.048	26
194.057	16
195.013	10
195.064	60
196.069	16
197.08	122
198.082	22
199.079	6
207.067	47
208.07	10
209.082	60
210.084	11
211.076	6
215.036	30
216.04	6
219.014	4
221.02	8
221.084	8
222.025	4
222.09	33
223.041	37
223.097	32
224.047	18
225.056	74
226.062	46
227.069	29
228.07	8
229.059	5
243.014	5
245.029	9
251.074	5
253.088	7
255.015	5
257.029	148
258.031	37
259.043	191
260.046	58
261.043	27
262.045	7
285.113	17
286.113	4
287.117	3
329.121	20
330.129	189
331.131	57
332.128	28
333.13	8
