Mass spectrum: Azamethiophos; LC-ESI-QTOF; MS2; [M+H]+; CID; CE 60V
Name: Azamethiophos
Class: Non-natural product
Formula: C9H10ClN2O5PS
Exact mass: 323.973657
SMILES: COP(=O)(OC)SCN1C2=C(C=C(C=N2)Cl)OC1=O
InChI: InChI=1S/C9H10ClN2O5PS/c1-15-18(14,16-2)19-5-12-8-7(17-9(12)13)3-6(10)4-11-8/h3-4H,5H2,1-2H3
Instrument: X500R QTOF (AB Sciex LLC, MA, USA) coupled to ExionLC AD (AB Sciex LLC, MA, USA).
Instrument type: LC-ESI-QTOF
Ms type: MS2
Ion mode: POSITIVE
Collision energy: 60 V
Fragmentation mode: CID
Ionization: ESI
Column name: TSKgel ODS-100S 5 um, 2.1 mm Ã— 250 mm, TOSOH
Retention time: 12.9 min
Precursor m/z: 324.980934
Precursor type: [M+H]+
m/z	relative intensity
61.9789	41
75.0102	122
76.0179	857
84.9838	189
111.9945	999
130.0053	185
139.0054	92
