Mass spectrum: Amlodipine; LC-ESI-QQ; MS2; ESI; POSITIVE; CID; CE 50 V; [M+H]+
Name: Amlodipine
Class: Non-natural product
Formula: C20H25ClN2O5
Exact mass: 408.145193
SMILES: CCOC(=O)C1=C(NC(=C(C1C2=CC=CC=C2Cl)C(=O)OC)C)COCCN
InChI: InChI=1S/C20H25ClN2O5/c1-4-28-20(25)18-15(11-27-10-9-22)23-12(2)16(19(24)26-3)17(18)13-7-5-6-8-14(13)21/h5-8,17,23H,4,9-11,22H2,1-3H3
Instrument: LCMS-8040 coupled to Nexera XR (Shimadzu, Kyoto, Japan).
Instrument type: LC-ESI-QQ
Ms type: MS2
Ion mode: POSITIVE
Collision energy: 50 V
Fragmentation mode: CID
Ionization: ESI
Column name: InertSustain C18 ID 2.1 microm, 2.1 x 100 mm (GL Science, Tokyo, Japan).
Retention time: 6.176 min
Precursor m/z: 409.15247
Precursor type: [M+H]+
m/z	relative intensity
42.4	202
44.3	479
55.1	55
56.3	55
58.3	55
67.3	52
69.1	55
72.3	37
74.4	104
80.1	55
92.1	27
93.9	109
95.9	55
98.2	55
100.3	55
101.1	109
102.1	246
103.2	55
111.2	27
114.1	55
115.2	379
116.2	55
117.4	22
120.3	147
122.3	54
122.9	54
124.2	252
127.1	122
128.1	269
130.3	109
137.0	548
138.0	244
139.2	27
140.2	109
140.7	39
142.2	999
143.2	326
146.1	55
147.0	27
148.0	206
149.1	925
152.0	58
154.1	154
155.1	199
156.3	299
157.2	102
160.9	115
162.3	109
163.2	104
164.1	73
165.2	566
167.2	154
168.2	55
169.7	82
170.4	25
171.2	27
173.0	66
175.0	82
176.2	329
177.2	183
178.1	297
179.7	48
181.2	55
183.2	44
184.3	51
185.3	55
189.1	122
190.8	27
192.3	164
196.1	335
197.4	54
198.1	82
202.8	109
204.1	128
208.0	311
209.2	111
214.1	73
215.2	27
216.2	109
220.2	223
221.3	27
224.3	85
225.3	188
226.1	55
230.3	164
231.9	133
232.8	105
237.5	82
238.4	64
243.2	95
246.0	52
247.4	42
252.2	27
256.9	109
258.3	64
260.2	182
306.0	27
