Mass spectrum: Halosulfuron methyl; LC-ESI-QTOF; MS2; [M+H]+; isotopolog ion m/z 437.045473; CID; CE 20V
Name: Halosulfuron methyl
Class: Non-natural product
Formula: C13H15ClN6O7S
Exact mass: 434.041146
SMILES: CN1C(=C(C(=N1)Cl)C(=O)OC)S(=O)(=O)NC(=O)NC2=NC(=CC(=N2)OC)OC
InChI: InChI=1S/C13H15ClN6O7S/c1-20-10(8(9(14)18-20)11(21)27-4)28(23,24)19-13(22)17-12-15-6(25-2)5-7(16-12)26-3/h5H,1-4H3,(H2,15,16,17,19,22)
Instrument: X500R QTOF (AB Sciex LLC, MA, USA) coupled to ExionLC AD (AB Sciex LLC, MA, USA).
Instrument type: LC-ESI-QTOF
Ms type: MS2
Ion mode: POSITIVE
Collision energy: 20 V
Fragmentation mode: CID
Ionization: ESI
Column name: AQ-C18HP 3 microm, 2.1 mm Ã— 150 mm (GL Science, Tokyo, Japan).
Retention time: 33.7 min
Precursor m/z: 437.045473
Precursor type: [M+H]+
m/z	relative intensity
139.0498	8
156.0778	26
182.0558	999
223.9702	21
405.019	186
437.0455	142
