Mass spectrum: Clothianidin; LC-ESI-QTOF; MS2; [M+H]+; CID; CE 30V
Name: Clothianidin
Class: Non-natural product
Formula: C6H8ClN5O2S
Exact mass: 249.008723
SMILES: CNC(=N[N+](=O)[O-])NCC1=CN=C(S1)Cl
InChI: InChI=1S/C6H8ClN5O2S/c1-8-6(11-12(13)14)10-3-4-2-9-5(7)15-4/h2H,3H2,1H3,(H2,8,10,11)
Instrument: X500R QTOF (AB Sciex LLC, MA, USA) coupled to ExionLC AD (AB Sciex LLC, MA, USA).
Instrument type: LC-ESI-QTOF
Ms type: MS2
Ion mode: POSITIVE
Collision energy: 30 V
Fragmentation mode: CID
Ionization: ESI
Column name: TSKgel ODS-100S 5 um, 2.1 mm Ã— 250 mm, TOSOH
Retention time: 11.2 min
Precursor m/z: 250.016
Precursor type: [M+H]+
m/z	relative intensity
70.995	26
86.0057	50
110.0712	324
111.0792	149
113.0168	504
131.9668	999
142.0434	34
146.9778	57
147.986	35
168.0465	74
169.0541	604
174.9725	58
