Mass spectrum: Chloridazon; LC-ESI-QTOF; MS2; [M-H]-; CID; CE 30V
Name: Chloridazon
Class: Non-natural product
Formula: C10H8ClN3O
Exact mass: 221.03559
SMILES: C1=CC=C(C=C1)N2C(=O)C(=C(C=N2)N)Cl
InChI: InChI=1S/C10H8ClN3O/c11-9-8(12)6-13-14(10(9)15)7-4-2-1-3-5-7/h1-6H,12H2
Instrument: X500R QTOF (AB Sciex LLC, MA, USA) coupled to ExionLC AD (AB Sciex LLC, MA, USA).
Instrument type: LC-ESI-QTOF
Ms type: MS2
Ion mode: NEGATIVE
Collision energy: 30 V
Fragmentation mode: CID
Ionization: ESI
Column name: TSKgel ODS-100S 5 um, 2.1 mm Ã— 250 mm, TOSOH
Retention time: 11.7 min
Precursor m/z: 220.028313
Precursor type: [M-H]-
m/z	relative intensity
34.9692	738
41.9984	114
65.0144	149
65.9984	121
73.9802	311
74.9642	999
100.9673	226
117.0458	526
144.0566	91
150.0116	505
220.0285	546
