Mass spectrum: S-Ethyl 4-fluorobenzothioate; GC-EI-TOF; MS; POSITIVE; 70 V
Name: S-Ethyl 4-fluorobenzothioate
Class: Non-natural compound
Formula: C9H9FOS
Exact mass: 184.035814
SMILES: CCSC(=O)C1=CC=C(C=C1)F
InChI: InChI=1S/C9H9FOS/c1-2-12-9(11)7-3-5-8(10)6-4-7/h3-6H,2H2,1H3
Instrument: JMS-T100GCV (JEOL, Akishima, Japan) coupled to Agilent 7890A (Santa Clara, CA, USA) gas chromatograph.
Instrument type: GC-EI-TOF
Ms type: MS
Ion mode: POSITIVE
Ionization: EI
Column name: ZB-1MS 7HM-G011-11 sn:313446 (Agilent, Wilmington, USA) with the length 30.0 m, I.D. 0.32 mm, and thickness 0.25 micrometer.
Retention time: 7.62 min
m/z	relative intensity
26.015	8
27.023	51
28.006	17
28.03	5
29.039	21
31.99	11
34.996	13
38.016	2
39.023	6
44.98	17
45.014	3
45.988	6
50.016	28
51.023	19
57.014	9
57.988	7
58.996	11
60.003	3
61.011	12
62.016	4
63.024	6
68.006	14
68.98	5
69.014	29
70.021	3
74.016	21
75.023	150
75.093	2
76.028	13
83.03	16
92.006	2
93.014	6
94.022	25
95.03	383
96.033	25
122.016	3
123.024	999
123.422	2
123.573	3
124.028	68
124.359	2
125.031	4
125.995	3
127.002	9
139.002	4
184.036	48
185.039	4
186.032	2
