Mass spectrum: Lormetazepam; LC-ESI-QQ; MS; ESI; POSITIVE
Name: Lormetazepam
Class: Non-natural product
Formula: C16H12Cl2N2O2
Exact mass: 334.027576
SMILES: CN1C2=C(C=C(C=C2)Cl)C(=NC(C1=O)O)C3=CC=CC=C3Cl
InChI: InChI=1S/C16H12Cl2N2O2/c1-20-13-7-6-9(17)8-11(13)14(19-15(21)16(20)22)10-4-2-3-5-12(10)18/h2-8,15,21H,1H3
Instrument: LCMS-8040 coupled to Nexera XR (Shimadzu, Kyoto, Japan).
Instrument type: LC-ESI-QQ
Ms type: MS
Ion mode: POSITIVE
Ionization: ESI
Column name: InertSustain C18 ID 2.1 microm, 2.1 x 100 mm (GL Science, Tokyo, Japan).
Retention time: 9.178 min
m/z	relative intensity
228.3	37
251.3	11
291.1	15
335.2	999
336.2	161
337.2	589
338.2	118
339.2	106
340.1	16
357.2	128
358.2	37
359.1	77
360.0	11
373.1	45
375.1	22
691.1	32
693.1	54
694.1	13
695.2	14
