Mass spectrum: Desipramine; LC-ESI-QQ; MS2; ESI; POSITIVE; CID; CE 40 V; [M+H]+
Name: Desipramine
Class: Non-natural product
Formula: C18H22N2
Exact mass: 266.17829
SMILES: CNCCCN1C2=CC=CC=C2CCC3=CC=CC=C31
InChI: InChI=1S/C18H22N2/c1-19-13-6-14-20-17-9-4-2-7-15(17)11-12-16-8-3-5-10-18(16)20/h2-5,7-10,19H,6,11-14H2,1H3
Instrument: LCMS-8040 coupled to Nexera XR (Shimadzu, Kyoto, Japan).
Instrument type: LC-ESI-QQ
Ms type: MS2
Ion mode: POSITIVE
Collision energy: 40 V
Fragmentation mode: CID
Ionization: ESI
Column name: InertSustain C18 ID 2.1 microm, 2.1 x 100 mm (GL Science, Tokyo, Japan).
Retention time: 8.466 min
Precursor m/z: 267.185567
Precursor type: [M+H]+
m/z	relative intensity
30.3	23
41.3	27
44.3	782
56.2	67
57.3	193
72.3	999
91.3	41
106.1	12
118.3	11
129.9	12
143.1	11
180.2	29
192.2	43
193.1	384
194.1	44
195.0	20
206.1	20
207.2	16
208.2	111
220.2	34
236.0	17
