Mass spectrum: Haloxazolam; LC-ESI-QQ; MS2; ESI; NEGATIVE; CID; CE 30 V; [M+H]+
Name: Haloxazolam
Class: Non-natural product
Formula: C17H14BrFN2O2
Exact mass: 376.022261
SMILES: C1COC2(N1CC(=O)NC3=C2C=C(C=C3)Br)C4=CC=CC=C4F
InChI: InChI=1S/C17H14BrFN2O2/c18-11-5-6-15-13(9-11)17(12-3-1-2-4-14(12)19)21(7-8-23-17)10-16(22)20-15/h1-6,9H,7-8,10H2,(H,20,22)
Instrument: LCMS-8040 coupled to Nexera XR (Shimadzu, Kyoto, Japan).
Instrument type: LC-ESI-QQ
Ms type: MS2
Ion mode: NEGATIVE
Collision energy: 30 V
Fragmentation mode: CID
Ionization: ESI
Column name: InertSustain C18 ID 2.1 microm, 2.1 x 100 mm (GL Science, Tokyo, Japan).
Retention time: 9.644 min
Precursor m/z: 375.014984
Precursor type: [M-H]-
m/z	relative intensity
42.2	50
79.0	700
93.1	13
95.1	25
102.1	63
116.0	34
128.0	34
181.9	25
195.8	259
208.9	25
216.8	50
222.3	24
244.9	58
269.8	13
272.0	13
280.7	30
282.1	410
283.0	59
287.9	132
296.9	60
297.9	59
299.9	84
303.1	84
310.2	25
312.1	34
323.8	47
325.0	999
345.1	25
354.8	34
