Mass spectrum: Clotiazepam; LC-ESI-QQ; MS2; ESI; POSITIVE; CE 40 V; [M+H]+
Name: Clotiazepam
Class: Non-natural product
Formula: C16H15ClN2OS
Exact mass: 318.05935
SMILES: CCC1=CC2=C(S1)N(C(=O)CN=C2C3=CC=CC=C3Cl)C
InChI: InChI=1S/C16H15ClN2OS/c1-3-10-8-12-15(11-6-4-5-7-13(11)17)18-9-14(20)19(2)16(12)21-10/h4-8H,3,9H2,1-2H3
Instrument: LCMS-8040 coupled to Nexera XR (Shimadzu, Kyoto, Japan).
Instrument type: LC-ESI-QQ
Ms type: MS2
Ion mode: POSITIVE
Collision energy: 40 V
Ionization: ESI
Column name: InertSustain C18 ID 2.1 microm, 2.1 x 100 mm (GL Science, Tokyo, Japan).
Retention time: 9.928 min
Precursor m/z: 319.06663
Precursor type: [M+H]+
m/z	relative intensity
30	12
42	43
45	12
47	21
56	38
58	21
59	28
67	11
70	22
72	12
73	25
74	999
77	47
79	233
80	35
81	29
82	10
83	12
85	161
91	29
93	35
94	42
95	20
97	23
98	37
99	106
102	24
104	12
106	69
108	12
109	12
110	53
111	85
113	538
114	12
115	46
116	82
117	12
119	79
120	83
121	97
122	23
123	25
124	17
125	193
127	61
128	28
130	35
135	12
137	35
138	162
139	264
141	16
142	23
143	28
145	12
149	23
150	26
151	28
152	95
153	40
154	731
155	118
156	21
163	12
165	92
166	56
167	156
168	363
169	34
170.6	22
171.2	17
175	11
177	189
179	28
180	22
181	100
182	347
183	272
184	16
188	42
190	192
191	48
192	58
193	31
194	21
195	16
196	23
198	79
199	34
201	12
202	86
203	286
204	13
205	23
206	23
207	22
208	36
210	57
211	12
212	40
213	17
214	74
215	45
216	70
218	212
219	23
221	32
223	37
224	69
225	115
227	284
228	85
229	31
230	26
231	11
232	12
233	128
234	21
235	11
237	12
239	23
241	63
242	37
243	182
247	70
248	12
250	91
255	22
257	67
258	12
260	45
261	39
262	11
264	40
271	23
275	377
276	17
291	173
318	20
319	12
