Mass spectrum: 5-(4-{[2-(tetradecanoylamino)ethyl]amino}-4-oxobutanamido)-N,N-dimethylpentan-1-amine N-oxide; ESI-QTOF; MS2; ESI; [M-H]-; CE 50 V
Name: 5-(4-{[2-(tetradecanoylamino)ethyl]amino}-4-oxobutanamido)-N,N-dimethylpentan-1-amine N-oxide
Name: AAO 13-2-2-5
Class: Non-natural product
Formula: C27H54N4O4
Exact mass: 498.41449
SMILES: O=C(NCCNC(=O)CCCCCCCCCCCCC)CCC(=O)NCCCCC[N+]([O-])(C)C
InChI: InChI=1S/C27H54N4O4/c1-4-5-6-7-8-9-10-11-12-13-15-18-25(32)29-22-23-30-27(34)20-19-26(33)28-21-16-14-17-24-31(2,3)35/h4-24H2,1-3H3,(H,28,33)(H,29,32)(H,30,34)
Instrument: X500R QTOF (AB Sciex LLC, MA, USA)
Instrument type: ESI-QTOF
Ms type: MS2
Ion mode: NEGATIVE
Collision energy: 50 V
Fragmentation mode: CID
Ionization: ESI
Precursor m/z: 497.407213 
Precursor type: [M-H]-
m/z	relative intensity
41.99838	15
70.02961	4
85.04050	4
97.04050	15
98.02460	442
101.07190	8
113.07177	9
115.05112	12
122.07214	9
123.05620	6
138.09230	24
140.08268	62
141.06676	70
148.07654	5
158.09326	64
165.10310	37
166.08710	258
168.10262	5
183.11358	8
195.11366	26
208.14532	13
209.19092	11
226.15582	70
226.21738	76
240.23299	53
252.23284	11
255.18234	13
267.24382	16
269.25942	999
323.27007	23
350.28077	13
351.26498	15
