Mass spectrum: Tebuthiuron; LC-ESI-QTOF; MS2; [M+H]+; CID; CE 30V
Name: Tebuthiuron
Class: Non-natural product
Formula: C9H16N4OS
Exact mass: 228.104482
SMILES: CC(C)(C)C1=NN=C(S1)N(C)C(=O)NC
InChI: InChI=1S/C9H16N4OS/c1-9(2,3)6-11-12-8(15-6)13(5)7(14)10-4/h1-5H3,(H,10,14)
Instrument: X500R QTOF (AB Sciex LLC, MA, USA) coupled to ExionLC AD (AB Sciex LLC, MA, USA).
Instrument type: LC-ESI-QTOF
Ms type: MS2
Ion mode: POSITIVE
Collision energy: 30 V
Fragmentation mode: CID
Ionization: ESI
Column name: TSKgel ODS-100S 5 um, 2.1 mm Ã— 250 mm, TOSOH
Retention time: 13.4 min
Precursor m/z: 229.111759
Precursor type: [M+H]+
m/z	relative intensity
57.0446	36
57.0696	25
62.0059	49
74.0059	52
89.0167	192
116.0275	643
142.0434	40
157.0667	319
172.0899	999
229.1122	57
