Mass spectrum: [Methyl[(pentylthio)methyl]silyl]benzene; GC-EI-TOF; MS; POSITIVE; 70 V
Name: [Methyl[(pentylthio)methyl]silyl]benzene
Class: Non-natural compound
Formula: C13H22SSi
Exact mass: 238.121148
SMILES: C[SiH](CSCCCCC)c1ccccc1
InChI: InChI=1S/C13H22SSi/c1-3-4-8-11-14-12-15(2)13-9-6-5-7-10-13/h5-7,9-10,15H,3-4,8,11-12H2,1-2H3
Instrument: JMS-T100GCV (JEOL, Akishima, Japan) coupled to Agilent 7890A (Santa Clara, CA, USA) gas chromatograph.
Instrument type: GC-EI-TOF
Ms type: MS
Ion mode: POSITIVE
Ionization: EI
Column name: HP-5 19091J-413 USD364547H (Agilent, Wilmington, USA) with the length 30.0 m, I.D. 0.32 mm, and thickness 0.25 micrometer.
Retention time: 9.40 min
m/z	relative intensity
27.023	59
28.006	43
28.031	6
28.985	17
29.039	96
29.084	1
31.99	17
39.024	34
40.031	4
41.039	133
41.091	2
41.993	5
42.047	26
43.001	187
43.055	156
44.001	12
44.059	6
44.98	11
44.997	7
45.016	10
45.988	9
46.996	10
50.016	3
51.024	14
52.031	4
52.985	45
53.04	8
53.989	5
55.001	14
55.055	29
56.062	3
57.016	8
58.024	5
58.996	5
59.032	5
60.004	5
60.957	18
61.012	32
62.972	4
63.024	4
65.039	19
65.993	6
67.001	18
67.055	5
68.005	2
68.063	3
69.016	19
69.071	38
70.077	5
71.086	5
72.957	6
73.966	2
74.973	63
75.026	3
75.979	17
76.032	2
76.987	20
77.04	31
77.991	4
78.047	12
79.001	27
79.055	16
80.005	5
81.016	14
83.031	3
88.989	44
89.04	6
89.996	320
90.048	5
91	46
91.055	501
91.242	2
91.527	2
91.993	27
92.059	42
92.138	1
92.196	1
93.016	39
93.07	6
94.019	4
95.032	36
96.034	4
97.04	2
103.001	13
103.057	3
104.008	5
105.017	173
105.071	9
105.161	1
106.02	28
107.032	41
108.034	5
109.047	4
117.018	12
117.074	23
118.023	4
119.032	136
120.037	35
121.048	999
121.59	3
122.05	127
122.37	2
123.046	39
124.048	3
131.033	11
132.039	4
133.048	48
134.056	239
135.062	139
136.062	22
136.989	19
137.06	5
137.993	3
139.004	10
145.05	10
147.066	9
147.117	5
151.005	9
152.011	5
153.02	338
154.022	48
155.017	29
156.019	3
159.066	3
161.082	3
162.084	2
165.02	31
166.023	5
167.035	437
167.586	1
167.627	1
168.042	275
168.605	2
168.674	1
169.039	61
170.039	23
171.04	3
179.035	4
181.051	3
190.118	11
191.122	4
221.083	2
223.098	132
224.101	27
225.095	12
226.099	2
237.114	8
238.121	112
239.123	23
240.119	11
241.119	2
