Mass spectrum: [[(Pentylthio)methyl]silyl]benzene; GC-EI-TOF; MS; POSITIVE; 70 V
Name: [[(Pentylthio)methyl]silyl]benzene
Class: Non-natural compound
Formula: C12H20SSi
Exact mass: 224.105498
SMILES: CCCCCSC[SiH2]c1ccccc1
InChI: InChI=1S/C12H20SSi/c1-2-3-7-10-13-11-14-12-8-5-4-6-9-12/h4-6,8-9H,2-3,7,10-11,14H2,1H3
Instrument: JMS-T100GCV (JEOL, Akishima, Japan) coupled to Agilent 7890A (Santa Clara, CA, USA) gas chromatograph.
Instrument type: GC-EI-TOF
Ms type: MS
Ion mode: POSITIVE
Ionization: EI
Column name: HP-5 19091J-413 USD364547H (Agilent, Wilmington, USA) with the length 30.0 m, I.D. 0.32 mm, and thickness 0.25 micrometer.
Retention time: 9.18 min
m/z	relative intensity
27.024	106
27.977	7
28.006	21
28.031	10
28.985	51
29.039	164
29.083	3
30.042	4
31.99	12
39.024	70
40.031	9
41.039	250
41.993	8
42.047	64
43.001	89
43.055	313
44.003	6
44.058	10
44.98	25
45.016	4
45.988	14
46.996	22
50.016	9
51.024	34
52.031	10
52.985	104
53.039	17
53.991	14
54.047	4
55.001	40
55.055	68
56.003	3
56.062	11
58.996	9
59.949	12
60.004	12
60.957	39
61.012	90
61.964	7
62.015	4
62.953	3
62.972	4
63.023	7
65.039	31
65.993	13
67.001	27
67.055	10
68.002	3
68.063	15
69.017	10
69.071	95
70.078	21
71.086	10
72.957	19
73.012	4
73.964	10
74.016	4
74.973	128
75.027	8
75.981	455
76.985	67
77.039	80
77.099	2
77.978	36
78.047	61
79.001	62
79.055	41
80.006	12
80.06	3
81.016	75
82.017	6
83.021	3
87.027	5
89.04	9
89.996	24
90.047	6
91.002	9
91.055	999
91.473	3
91.523	3
91.848	2
91.893	2
92.005	4
92.059	83
92.138	3
93.016	34
93.07	39
94.018	4
94.074	4
95.032	15
97.048	14
98.055	13
101.042	4
102.051	4
103.002	33
103.058	7
104.01	18
105.016	495
106.02	80
107.032	550
108.034	60
109.03	20
112.071	17
113.076	4
117.019	18
117.074	30
118.026	14
118.078	5
119.032	88
120.04	268
121.047	188
122.047	25
123.045	6
131.035	25
132.036	4
133.048	5
134.054	4
136.988	59
137.992	9
139.004	450
140.006	59
141.001	36
142.002	4
145.051	18
146.056	6
147.064	5
147.12	3
148.07	7
151.004	13
152.012	16
153.02	655
153.572	3
153.633	2
154.027	481
154.555	3
155.025	100
156.024	38
157.026	6
165.02	5
167.035	10
176.101	13
177.105	3
181.052	3
207.07	3
209.082	66
210.084	12
211.079	7
223.098	21
224.105	198
225.108	35
226.103	17
227.105	3
