Mass spectrum: Propyphenazone; LC-ESI-QQ; MS; ESI; POSITIVE
Name: Propyphenazone
Class: Non-natural product
Formula: C14H18N2O
Exact mass: 230.141905
SMILES: CC1=C(C(=O)N(N1C)C2=CC=CC=C2)C(C)C
InChI: InChI=1S/C14H18N2O/c1-10(2)13-11(3)15(4)16(14(13)17)12-8-6-5-7-9-12/h5-10H,1-4H3
Instrument: LCMS-8040 coupled to Nexera XR (Shimadzu, Kyoto, Japan).
Instrument type: LC-ESI-QQ
Ms type: MS
Ion mode: POSITIVE
Ionization: ESI
Column name: InertSustain C18 ID 2.1 microm, 2.1 x 100 mm (GL Science, Tokyo, Japan).
Retention time: 8.601 min
m/z	relative intensity
231.2	999
232.3	145
233.2	13
