Mass spectrum: Naptalam; LC-ESI-QTOF; MS2; [M-H]-; CID; CE 10V
Name: Naptalam
Class: Non-natural product
Formula: C18H13NO3
Exact mass: 291.089543
SMILES: C1=CC=C2C(=C1)C=CC=C2NC(=O)C3=CC=CC=C3C(=O)O
InChI: InChI=1S/C18H13NO3/c20-17(14-9-3-4-10-15(14)18(21)22)19-16-11-5-7-12-6-1-2-8-13(12)16/h1-11H,(H,19,20)(H,21,22)
Instrument: X500R QTOF (AB Sciex LLC, MA, USA) coupled to ExionLC AD (AB Sciex LLC, MA, USA).
Instrument type: LC-ESI-QTOF
Ms type: MS2
Ion mode: NEGATIVE
Collision energy: 10 V
Fragmentation mode: CID
Ionization: ESI
Column name: AQ-C18HP 3 microm, 2.1 mm Ã— 150 mm (GL Science, Tokyo, Japan).
Retention time: 28.7 min
Precursor m/z: 290.082266
Precursor type: [M-H]-
m/z	relative intensity
246.0925	310
290.0822	999
