Mass spectrum: Cyproheptadine; LC-ESI-QQ; MS; ESI; POSITIVE
Name: Cyproheptadine
Class: Non-natural product
Formula: C21H21N
Exact mass: 287.167395
SMILES: CN1CCC(=C2C3=CC=CC=C3C=CC4=CC=CC=C42)CC1
InChI: InChI=1S/C21H21N/c1-22-14-12-18(13-15-22)21-19-8-4-2-6-16(19)10-11-17-7-3-5-9-20(17)21/h2-11H,12-15H2,1H3
Instrument: LCMS-8040 coupled to Nexera XR (Shimadzu, Kyoto, Japan).
Instrument type: LC-ESI-QQ
Ms type: MS
Ion mode: POSITIVE
Ionization: ESI
Column name: InertSustain C18 ID 2.1 microm, 2.1 x 100 mm (GL Science, Tokyo, Japan).
Retention time: 9.411 min
m/z	relative intensity
288.3	999
289.3	224
290.3	18
