Mass spectrum: Quetiapine; LC-ESI-QQ; MS; ESI; NEGATIVE
Name: Quetiapine
Class: Non-natural product
Formula: C21H25N3O2S
Exact mass: 383.166736
SMILES: C1CN(CCN1CCOCCO)C2=NC3=CC=CC=C3SC4=CC=CC=C42
InChI: InChI=1S/C21H25N3O2S/c25-14-16-26-15-13-23-9-11-24(12-10-23)21-17-5-1-3-7-19(17)27-20-8-4-2-6-18(20)22-21/h1-8,25H,9-16H2
Instrument: LCMS-8040 coupled to Nexera XR (Shimadzu, Kyoto, Japan).
Instrument type: LC-ESI-QQ
Ms type: MS
Ion mode: NEGATIVE
Ionization: ESI
Column name: InertSustain C18 ID 2.1 microm, 2.1 x 100 mm (GL Science, Tokyo, Japan).
Retention time: 9.705 min
m/z	relative intensity
101.0	45
103.1	15
104.0	15
109.1	11
111.0	12
113.0	105
114.9	33
116.9	51
117.9	11
119.1	11
129.0	83
130.9	23
132.9	12
143.0	65
144.9	25
147.0	17
150.9	12
157.0	69
158.0	16
158.9	24
163.0	17
165.1	20
166.9	16
173.0	22
178.9	17
184.8	11
189.0	12
191.1	16
193.1	36
196.0	11
201.0	50
215.1	13
217.0	13
221.1	19
237.0	11
239.2	10
241.2	15
242.1	13
243.2	34
245.1	14
247.1	14
251.1	17
253.0	21
256.1	39
257.2	14
259.1	17
261.2	11
265.0	14
269.2	22
271.3	14
273.0	14
275.1	11
277.3	31
279.1	28
283.3	22
285.2	18
287.2	13
291.3	21
293.1	41
295.2	14
299.1	19
309.2	44
310.2	11
311.2	18
313.2	18
315.2	34
319.2	17
321.2	25
323.2	30
327.1	14
329.3	13
331.3	13
337.3	16
338.7	11
341.2	13
351.4	14
370.9	12
373.3	14
377.2	19
382.2	999
383.2	244
384.2	79
385.2	29
386.9	10
389.3	11
401.2	14
405.3	19
414.3	60
415.3	21
418.2	86
419.2	28
420.2	39
421.2	21
426.2	215
428.2	268
429.2	79
430.2	23
431.1	13
444.1	28
459.5	10
462.2	12
469.2	10
472.3	30
