Mass spectrum: Flunitrazepam; LC-ESI-QQ; MS2; ESI; POSITIVE; CID; CE 40 V; [M+H]+
Name: Flunitrazepam
Class: Non-natural product
Formula: C16H12FN3O3
Exact mass: 313.086258
SMILES: CN1C(=O)CN=C(C2=C1C=CC(=C2)[N+](=O)[O-])C3=CC=CC=C3F
InChI: InChI=1S/C16H12FN3O3/c1-19-14-7-6-10(20(22)23)8-12(14)16(18-9-15(19)21)11-4-2-3-5-13(11)17/h2-8H,9H2,1H3
Instrument: LCMS-8040 coupled to Nexera XR (Shimadzu, Kyoto, Japan).
Instrument type: LC-ESI-QQ
Ms type: MS2
Ion mode: POSITIVE
Collision energy: 40 V
Fragmentation mode: CID
Ionization: ESI
Column name: InertSustain C18 ID 2.1 microm, 2.1 x 100 mm (GL Science, Tokyo, Japan).
Retention time: 8.703 min
Precursor m/z: 314.093535
Precursor type: [M+H]+
m/z	relative intensity
58.3	15
65.2	13
80.0	12
90.2	52
91.3	22
104.3	25
107.1	19
109.3	54
116.2	36
117.2	27
118.2	188
119.2	262
122.2	20
123.2	52
132.3	36
134.0	20
143.2	38
144.2	21
145.1	23
147.2	83
164.1	25
165.1	85
166.0	24
170.1	101
171.0	14
174.3	16
177.2	16
182.2	28
183.1	288
184.1	38
185.2	30
186.0	13
190.1	47
191.1	23
192.1	76
193.1	26
194.2	21
195.3	15
197.1	151
198.1	281
199.0	19
200.2	14
201.1	14
203.2	11
205.1	150
206.0	12
210.2	157
211.1	365
212.2	292
213.1	55
219.2	136
220.2	23
221.2	143
222.2	152
223.2	77
224.1	76
225.1	83
227.1	59
237.2	34
239.2	999
240.2	110
268.2	490
270.2	20
313.9	21
