Mass spectrum: ((((4-((Methylthio)methyl)cyclohexyl)methyl)thio)methyl)diphenylsilane; GC-EI-TOF; MS; POSITIVE; 70 V
Name: ((((4-((Methylthio)methyl)cyclohexyl)methyl)thio)methyl)diphenylsilane
Class: Non-natural compound
Formula: C22H30S2Si
Exact mass: 386.155819
SMILES: CSCC1CCC(CSC[SiH](c2ccccc2)c2ccccc2)CC1
InChI: InChI=1S/C22H30S2Si/c1-23-16-19-12-14-20(15-13-19)17-24-18-25(21-8-4-2-5-9-21)22-10-6-3-7-11-22/h2-11,19-20,25H,12-18H2,1H3
Instrument: JMS-T100GCV (JEOL, Akishima, Japan) coupled to Agilent 7890A (Santa Clara, CA, USA) gas chromatograph.
Instrument type: GC-EI-TOF
Ms type: MS
Ion mode: POSITIVE
Ionization: EI
Column name: HP-5 19091J-413 USD364547H (Agilent, Wilmington, USA) with the length 30.0 m, I.D. 0.32 mm, and thickness 0.25 micrometer.
Retention time: 13.78 min
m/z	relative intensity
20.006	3
27.024	17
28.006	319
28.031	7
29.039	31
31.99	124
34.996	13
39.024	28
39.963	9
40.032	5
41.04	112
42.044	7
42.743	3
43	6
43.055	29
43.113	4
43.991	9
44.981	20
45.987	8
46.996	22
48.006	5
49.011	5
51.024	11
52.032	5
52.985	34
53.04	38
53.991	4
54.048	28
55.056	134
55.105	3
56.06	8
58.996	7
60.004	6
61.012	350
61.077	6
61.124	4
62.016	14
63.008	18
65.04	29
66.047	14
67.003	7
67.056	232
67.101	5
68.061	23
69.071	16
70.993	3
71.633	3
73.013	9
73.048	13
74.019	12
74.975	9
75.027	13
76.987	4
77.04	47
78.047	26
79.001	32
79.056	156
80.007	4
80.063	48
81.016	5
81.072	70
82.077	7
83.088	5
84.962	4
85.013	12
87.027	18
89.04	7
90.047	6
91.056	298
91.181	3
92.06	29
93.017	24
93.071	121
94.078	40
95.087	90
96.003	4
96.091	7
99.026	7
101.043	6
102.051	10
103.001	20
104.007	7
104.063	4
105.017	330
105.072	24
106.019	41
106.078	6
107.024	14
107.087	100
108.095	502
108.583	4
108.946	3
109.102	138
110.106	12
113.044	4
115.057	7
117.02	8
117.072	5
118.03	5
119.033	32
120.038	10
121.048	9
122.113	5
128.063	3
129.018	10
131.033	13
133.018	5
135.066	4
136.989	39
137.992	8
138.997	6
141.075	237
142.079	25
143.071	11
147.067	4
149.996	5
151.005	54
151.056	3
152.013	314
152.155	4
153.017	78
153.072	7
154.011	30
155.033	30
155.091	18
156.034	5
156.098	148
156.184	4
156.242	4
157.047	8
157.102	25
158.094	9
165.021	18
165.073	27
166.076	7
167.033	10
167.087	11
169.05	5
179.033	7
180.041	35
181.049	270
181.329	4
182.052	59
183.065	999
183.676	4
183.753	4
184.067	179
184.284	5
184.637	4
184.706	3
184.793	3
185.064	45
185.148	3
186.065	6
191.002	6
193.048	14
194.053	7
195.064	135
195.197	5
196.071	95
196.173	5
197.079	209
198.082	42
199.082	11
203.091	7
207.035	34
208.037	8
209.031	6
213.021	5
214.022	4
215.036	98
215.134	3
216.039	20
217.035	10
227.036	10
229.052	347
229.271	3
230.057	118
231.06	60
232.058	14
233.057	5
244.077	3
247.096	6
253.015	5
261.114	126
261.251	3
262.116	27
263.113	13
276.046	24
277.048	7
278.05	5
281.053	14
282.05	6
323.129	11
324.134	4
325.146	8
326.154	4
338.15	8
339.16	85
339.317	3
340.163	25
341.014	3
341.16	10
355.076	3
371.133	16
372.137	6
373.128	4
385.144	4
386.156	101
386.951	3
387.158	33
388.154	16
389.153	5
