Mass spectrum: Indanofan; LC-ESI-QTOF; MS; POSITIVE
Name: Indanofan
Class: Non-natural product
Formula: C20H17ClO3
Exact mass: 340.086622
SMILES: CCC1(C(=O)C2=CC=CC=C2C1=O)CC3(CO3)C4=CC(=CC=C4)Cl
InChI: InChI=1S/C20H17ClO3/c1-2-19(17(22)15-8-3-4-9-16(15)18(19)23)11-20(12-24-20)13-6-5-7-14(21)10-13/h3-10H,2,11-12H2,1H3
Instrument: X500R QTOF (AB Sciex LLC, MA, USA) coupled to ExionLC AD (AB Sciex LLC, MA, USA).
Instrument type: LC-ESI-QTOF
Ms type: MS
Ion mode: POSITIVE
Ionization: ESI
Column name: TSKgel ODS-100S 5 um, 2.1 mm Ã— 250 mm, TOSOH
Retention time: 15.2 min
m/z	relative intensity
175.0752	913
187.0755	318
341.0941	999
342.0977	215
343.0914	352
