Mass spectrum: Clotiazepam; LC-ESI-QQ; MS2; ESI; POSITIVE; CE 50 V; [M+H]+
Name: Clotiazepam
Class: Non-natural product
Formula: C16H15ClN2OS
Exact mass: 318.05935
SMILES: CCC1=CC2=C(S1)N(C(=O)CN=C2C3=CC=CC=C3Cl)C
InChI: InChI=1S/C16H15ClN2OS/c1-3-10-8-12-15(11-6-4-5-7-13(11)17)18-9-14(20)19(2)16(12)21-10/h4-8H,3,9H2,1-2H3
Instrument: LCMS-8040 coupled to Nexera XR (Shimadzu, Kyoto, Japan).
Instrument type: LC-ESI-QQ
Ms type: MS2
Ion mode: POSITIVE
Collision energy: 50 V
Ionization: ESI
Column name: InertSustain C18 ID 2.1 microm, 2.1 x 100 mm (GL Science, Tokyo, Japan).
Retention time: 9.928 min
Precursor m/z: 319.06663
Precursor type: [M+H]+
m/z	relative intensity
30	36
39	14
41	17
42	35
47	29
53	18
55	14
56	27
59	65
65	14
66	39
67	14
69	72
70	14
72	14
74	999
75	20
77	305
78	16
79	491
80	110
84	28
85	138
90	26
91	55
93	46
94	29
97	63
98	77
99	74
102	83
103	14
104	14
106	176
107	14
108	22
109	29
110	38
111	108
113	316
114	21
115	212
116	35
117	21
119	17
120	94
121	132
122	37
124	20
125	101
126	16
127	19
128	65
130	14
131	12
135	26
136	35
137	27
138	213
139	283
140	13
141	14
142	21
143	41
147	29
148	14
149	31
150	31
151	118
152	148
154	400
155	26
156	46
163	58
164	54
165	220
166	27
167	272
168	305
169	30
171	26
173	58
175	22
177	177
179	29
180	108
181	64
182	199
183	111
185	36
187	14
190	118
191	86
192	31
193	102
194	27
195	62
196	21
198	63
199	108
200	31
202	92
203	203
205	29
207	73
208	74
209	14
210	80
211	14
212	81
213	28
214	20
215	63
216	14
217	29
218	66
219	14
220	43
221	19
223	21
224	60
225	93
226	34
227	107
228	37
229	41
230	13
233	48
235	36
239	52
241	57
243	117
246	22
247	14
248	14
250	29
257	29
260	171
261	14
264	14
275	291
291	62
318	29
319	52
