Mass spectrum: Amantadine; LC-ESI-QQ; MS2; ESI; POSITIVE; CID; CE 10 V; [M+H]+
Name: Amantadine
Class: Non-natural product
Formula: C10H17N
Exact mass: 151.136095
SMILES: C1C2CC3CC1CC(C2)(C3)N
InChI: InChI=1S/C10H17N/c11-10-4-7-1-8(5-10)3-9(2-7)6-10/h7-9H,1-6,11H2
Instrument: LCMS-8040 coupled to Nexera XR (Shimadzu, Kyoto, Japan).
Instrument type: LC-ESI-QQ
Ms type: MS2
Ion mode: POSITIVE
Collision energy: 10 V
Fragmentation mode: CID
Ionization: ESI
Column name: InertSustain C18 ID 2.1 microm, 2.1 x 100 mm (GL Science, Tokyo, Japan).
Retention time: 6.176 min
Precursor m/z: 152.143372
Precursor type: [M+H]+
m/z	relative intensity
93.1	16
107.2	26
135.2	999
152.3	966
