Mass spectrum: Fenamidone; LC-ESI-QTOF; MS2; [M+H]+; CID; CE 20 V
Name: Fenamidone
Class: Non-natural product
Formula: C17H17N3OS
Exact mass: 311.109233
SMILES: C[C@@]1(C(=O)N(C(=N1)SC)NC2=CC=CC=C2)C3=CC=CC=C3
InChI: InChI=1S/C17H17N3OS/c1-17(13-9-5-3-6-10-13)15(21)20(16(18-17)22-2)19-14-11-7-4-8-12-14/h3-12,19H,1-2H3/t17-/m0/s1
Instrument: X500R QTOF (AB Sciex LLC, MA, USA) coupled to ExionLC AD (AB Sciex LLC, MA, USA).
Instrument type: LC-ESI-QTOF
Ms type: MS2
Ion mode: POSITIVE
Collision energy: 20 V
Fragmentation mode: CID
Ionization: ESI
Column name: TSKgel ODS-100S 5 um, 2.1 mm Ã— 250 mm, TOSOH
Retention time: 14.5 min
Precursor m/z: 312.11651
Precursor type: [M+H]+
m/z	relative intensity
92.0493	692
103.0542	325
120.0808	131
131.0492	97
134.0714	60
161.0712	84
165.0482	369
211.1232	225
222.0919	139
236.1179	999
239.118	259
264.1133	385
267.0955	193
312.1168	322
