Mass spectrum: S-Ethyl 4-methoxybenzothioate; GC-EI-TOF; MS; POSITIVE; 70 V
Name: S-Ethyl 4-methoxybenzothioate
Class: Non-natural compound
Formula: C10H12O2S
Exact mass: 196.055801
SMILES: CCSC(=O)C1=CC=C(C=C1)OC
InChI: InChI=1S/C10H12O2S/c1-3-13-10(11)8-4-6-9(12-2)7-5-8/h4-7H,3H2,1-2H3
Instrument: JMS-T100GCV (JEOL, Akishima, Japan) coupled to Agilent 7890A (Santa Clara, CA, USA) gas chromatograph.
Instrument type: GC-EI-TOF
Ms type: MS
Ion mode: POSITIVE
Ionization: EI
Column name: ZB-1MS 7HM-G011-11 sn:313446 (Agilent, Wilmington, USA) with the length 30.0 m, I.D. 0.32 mm, and thickness 0.25 micrometer.
Retention time: 9.05 min
m/z	relative intensity
26.016	5
27.024	38
28.006	18
28.031	5
29.039	23
31.99	11
34.996	9
38.016	16
39.024	11
44.98	12
45.988	4
50.016	26
51.023	17
52.03	2
53.003	4
53.039	6
57.988	4
58.996	6
61.011	6
62.016	11
63.024	68
64.031	86
65.037	9
66.011	5
68.98	5
69.988	3
74.016	8
75.024	10
76.031	28
77.039	184
77.166	1
78.043	15
79.055	8
92.026	149
93.03	10
94.995	2
95.05	3
96.004	6
97.011	3
104.026	9
105.032	3
106.042	3
107.05	72
108.003	3
108.053	6
120.021	2
123.999	4
125.005	2
135.044	999
135.621	3
136.048	93
136.459	2
137.05	8
139.022	17
196.056	33
197.059	4
198.054	2
