Mass spectrum: Oxypertine; LC-ESI-QQ; MS2; ESI; POSITIVE; CID; CE 50 V; [M+H]+
Name: Oxypertine
Class: Non-natural product
Formula: C23H29N3O2
Exact mass: 379.225965
SMILES: CC1=C(C2=CC(=C(C=C2N1)OC)OC)CCN3CCN(CC3)C4=CC=CC=C4
InChI: InChI=1S/C23H29N3O2/c1-17-19(20-15-22(27-2)23(28-3)16-21(20)24-17)9-10-25-11-13-26(14-12-25)18-7-5-4-6-8-18/h4-8,15-16,24H,9-14H2,1-3H3
Instrument: LCMS-8040 coupled to Nexera XR (Shimadzu, Kyoto, Japan).
Instrument type: LC-ESI-QQ
Ms type: MS2
Ion mode: POSITIVE
Collision energy: 50 V
Fragmentation mode: CID
Ionization: ESI
Column name: InertSustain C18 ID 2.1 microm, 2.1 x 100 mm (GL Science, Tokyo, Japan).
Retention time: 9.174 min
Precursor m/z: 380.233242
Precursor type: [M+H]+
m/z	relative intensity
42.3	159
57.4	20
70.3	999
77.2	140
82.4	19
91.3	12
98.3	24
104.2	674
105.2	16
115.8	13
117.3	33
120.4	31
127.9	11
129.2	20
130.1	36
131.1	43
132.2	668
133.2	67
138.2	13
143.2	32
144.2	70
145.3	24
146.3	47
147.3	29
156.3	62
157.2	90
159.1	87
160.1	364
161.3	16
172.2	285
174.2	270
175.1	123
184.3	39
185.2	21
186.2	41
187.2	262
188.2	168
202.2	265
203.2	80
218.2	48
