Mass spectrum: Talipexole; LC-ESI-QQ; MS2; ESI; POSITIVE; CID; CE 30 V; [M+H]+
Name: Talipexole
Class: Non-natural product
Formula: C10H15N3S
Exact mass: 209.098656
SMILES: C=CCN1CCC2=C(CC1)SC(=N2)N
InChI: InChI=1S/C10H15N3S/c1-2-5-13-6-3-8-9(4-7-13)14-10(11)12-8/h2H,1,3-7H2,(H2,11,12)
Instrument: LCMS-8040 coupled to Nexera XR (Shimadzu, Kyoto, Japan).
Instrument type: LC-ESI-QQ
Ms type: MS2
Ion mode: POSITIVE
Collision energy: 30 V
Fragmentation mode: CID
Ionization: ESI
Column name: InertSustain C18 ID 2.1 microm, 2.1 x 100 mm (GL Science, Tokyo, Japan).
Retention time: 4.719 min
Precursor m/z: 210.105933
Precursor type: [M+H]+
m/z	relative intensity
39.3	46
41.3	228
42.3	91
56.4	12
59.2	12
65.3	19
67.2	69
70.3	45
77.2	76
78.3	12
79.2	14
80.2	58
81.2	21
82.3	91
84.3	666
85.2	24
86.2	13
93.2	40
94.2	59
95.2	17
96.1	12
97.2	73
99.2	54
100.2	94
108.2	13
109.2	82
110.3	16
111.2	64
112.1	11
113.2	97
114.2	31
126.2	103
127.2	999
128.2	20
134.2	56
136.2	18
139.1	154
140.1	31
141.1	206
142.1	326
151.1	11
153.1	50
168.2	20
169.1	26
210.1	23
