Mass spectrum: (3aR,6R,6aR)-3a-hydroxy-3,3,6-trimethyltetrahydro-1H-cyclopenta[c]furan-1,4(3H)-dione; GC-FI-TOF; MS; POSITIVE; 10 kV
Name: (3aR,6R,6aR)-3a-hydroxy-3,3,6-trimethyltetrahydro-1H-cyclopenta[c]furan-1,4(3H)-dione
Class: Non-natural compound
Formula: C10H14O4
Exact mass: 198.089209
SMILES: CC1(C)OC(=O)[C@@H]2[C@H](C)CC(=O)[C@@]21O
InChI: InChI=1S/C10H14O4/c1-5-4-6(11)10(13)7(5)8(12)14-9(10,2)3/h5,7,13H,4H2,1-3H3/t5-,7+,10-/m1/s1
Instrument: JMS-T100GCV (JEOL, Akishima, Japan) coupled to Agilent 7890A (Santa Clara, CA, USA) gas chromatograph.
Instrument type: GC-FI-TOF
Ms type: MS
Ion mode: POSITIVE
Ionization: FI
Column name: HP-5 19091J-413 USD364547H (Agilent, Wilmington, USA) with the length 30.0 m, I.D. 0.32 mm, and thickness 0.25 micrometer.
Retention time: 8.00 min
m/z	relative intensity
112.047	23
140.045	45
170.094	328
171.097	32
197.081	60
198.089	999
199.095	209
200.098	25
