Mass spectrum: Thioridazine; LC-ESI-QQ; MS; ESI; POSITIVE
Name: Thioridazine
Class: Non-natural product
Formula: C21H26N2S2
Exact mass: 370.153732
SMILES: CN1CCCCC1CCN2C3=CC=CC=C3SC4=C2C=C(C=C4)SC
InChI: InChI=1S/C21H26N2S2/c1-22-13-6-5-7-16(22)12-14-23-18-8-3-4-9-20(18)25-21-11-10-17(24-2)15-19(21)23/h3-4,8-11,15-16H,5-7,12-14H2,1-2H3
Instrument: LCMS-8040 coupled to Nexera XR (Shimadzu, Kyoto, Japan).
Instrument type: LC-ESI-QQ
Ms type: MS
Ion mode: POSITIVE
Ionization: ESI
Column name: InertSustain C18 ID 2.1 microm, 2.1 x 100 mm (GL Science, Tokyo, Japan).
Retention time: 9.627 min
m/z	relative intensity
249.3	28
266.3	18
327.1	17
329.1	13
371.3	999
372.3	232
373.3	118
374.3	23
