Mass spectrum: Indometacin; LC-ESI-QQ; MS; ESI; POSITIVE
Name: Indometacin
Class: Non-natural product
Formula: C19H16ClNO4
Exact mass: 357.076783
SMILES: CC1=C(C2=C(N1C(=O)C3=CC=C(C=C3)Cl)C=CC(=C2)OC)CC(=O)O
InChI: InChI=1S/C19H16ClNO4/c1-11-15(10-18(22)23)16-9-14(25-2)7-8-17(16)21(11)19(24)12-3-5-13(20)6-4-12/h3-9H,10H2,1-2H3,(H,22,23)
Instrument: LCMS-8040 coupled to Nexera XR (Shimadzu, Kyoto, Japan).
Instrument type: LC-ESI-QQ
Ms type: MS
Ion mode: POSITIVE
Ionization: ESI
Column name: InertSustain C18 ID 2.1 microm, 2.1 x 100 mm (GL Science, Tokyo, Japan).
Retention time: 9.281 min
m/z	relative intensity
139.1	13
174.2	19
358.2	999
359.2	206
360.2	318
361.2	64
375.3	171
376.3	29
377.3	57
378.3	10
380.2	110
381.3	20
382.2	37
387.3	53
388.3	16
396.2	43
398.2	25
404.3	41
