Mass spectrum: Ginsenoside Rd; LC-ESI-ITTOF; MS; [M-H]-
Name: Ginsenoside Rd
Name: beta-D-Glucopyranoside, (3beta,12beta)-20-(beta-D-glucopyranosyloxy)-12-hydroxydammar-24-en-3-yl 2-O-beta-D-glucopyranosyl-
Name: Dammarane, beta-D-glucopyranoside deriv.
Name: Gypenoside VIII
Class: Natural Product; Saponin
Formula: C48H82O18
Exact mass: 946.55012
SMILES: CC(=CCC[C@@](C)([C@H]1CC[C@@]2([C@@H]1[C@@H](C[C@H]3[C@]2(CC[C@@H]4[C@@]3(CC[C@@H](C4(C)C)O[C@H]5[C@@H]([C@H]([C@@H]([C@H](O5)CO)O)O)O[C@H]6[C@@H]([C@H]([C@@H]([C@H](O6)CO)O)O)O)C)C)O)C)O[C@H]7[C@@H]([C@H]([C@@H]([C@H](O7)CO)O)O)O)C
InChI: InChI=1S/C48H82O18/c1-22(2)10-9-14-48(8,66-42-39(60)36(57)33(54)26(20-50)62-42)23-11-16-47(7)31(23)24(52)18-29-45(5)15-13-30(44(3,4)28(45)12-17-46(29,47)6)64-43-40(37(58)34(55)27(21-51)63-43)65-41-38(59)35(56)32(53)25(19-49)61-41/h10,23-43,49-60H,9,11-21H2,1-8H3/t23-,24+,25+,26+,27+,28-,29+,30-,31-,32+,33+,34+,35-,36-,37-,38+,39+,40+,41-,42-,43-,45-,46+,47+,48-/m0/s1
Instrument: Shimadzu LC20A-IT-TOFMS
Instrument type: LC-ESI-ITTOF
Ms type: MS
Ion mode: NEGATIVE
Ionization: ESI
Column name: Waters Atlantis T3 (2.1 x 150 mm, 5 um)
Retention time: 1052.300 sec
Ion type: [M-H]-
m/z	relative intensity
945.5412	999
946.0339	198
946.5415	544
947.0402	54
947.5458	159
1005.5622	133
1006.5593	80
1059.5253	262
1060.5334	143
