Mass spectrum: Diflubenzuron; LC-ESI-QFT; MS2; CE: 180%; R=15000; [M+H]+
Name: Diflubenzuron
Name: N-[(4-chlorophenyl)carbamoyl]-2,6-difluorobenzamide
Formula: C14H9ClF2N2O2
Exact mass: 310.0320616
SMILES: FC1=CC=CC(F)=C1C(=O)NC(=O)NC1=CC=C(Cl)C=C1
InChI: InChI=1S/C14H9ClF2N2O2/c15-8-4-6-9(7-5-8)18-14(21)19-13(20)12-10(16)2-1-3-11(12)17/h1-7H,(H2,18,19,20,21)
Instrument: Q Exactive Plus
Instrument type: LC-ESI-QFT
Ms type: MS2
Ion mode: POSITIVE
Ionization: ESI
Fragmentation mode: HCD
Collision energy: 180 % (nominal)
Resolution: 15000
Column name: XBridge C18 3.5um, 2.1x50mm, Waters
Retention time: 11.176 min
Base peak: 311.0397
Precursor m/z: 311.0393
Precursor type: [M+H]+
Precursor intensity: 135662558.53
m/z	relative intensity	assigned
57.0135	31	C3H2F+
61.0073	69	C5H+
62.0151	263	C5H2+
63.023	999	C5H3+
72.984	35	C3H2Cl+
74.0151	199	C6H2+
75.023	43	C6H3+
92.0058	35	C6HF+
93.0136	111	C6H2F+
99.0003	19	F2HN2O2+
99.0104	83	C7HN+
100.0183	72	C7H2N+
113.0198	20	C6H3F2+
141.0259	20	C6H3F2N2+
