Mass spectrum: (E)-1-(2-Chloro-1,3-thiazol-5-yl methyl)-3-methyl-2-nitroguanidine; LC-ESI-QFT; MS2; CE: 15%; R=15000; [M-H]-
Name: (E)-1-(2-Chloro-1,3-thiazol-5-yl methyl)-3-methyl-2-nitroguanidine
Name: 1-[(2-chloro-1,3-thiazol-5-yl)methyl]-2-methyl-3-nitroguanidine
Formula: C6H8ClN5O2S
Exact mass: 249.0087232
SMILES: CN\C(NCC1=CN=C(Cl)S1)=N/[N+]([O-])=O
InChI: InChI=1S/C6H8ClN5O2S/c1-8-6(11-12(13)14)10-3-4-2-9-5(7)15-4/h2H,3H2,1H3,(H2,8,10,11)
Instrument: Q Exactive Plus
Instrument type: LC-ESI-QFT
Ms type: MS2
Ion mode: NEGATIVE
Ionization: ESI
Fragmentation mode: HCD
Collision energy: 15 % (nominal)
Resolution: 15000
Column name: XBridge C18 3.5um, 2.1x50mm, Waters
Retention time: 4.147 min
Base peak: 248.0014
Precursor m/z: 248.0014
Precursor type: [M-H]-
Precursor intensity: 134504502.14
m/z	relative intensity	assigned
55.0301	10	C2H3N2-
57.9756	999	CNS-
61.0043	36	HN2O2-
95.025	11	C4H3N2O-
111.0023	75	C4H3N2S-
165.024	68	C6H5N4S-
166.0317	57	C6H6N4S-
168.0236	18	C6H6N3OS-
195.022	25	C6H5N5OS-
248.0014	142	C6H7ClN5O2S-
