Mass spectrum: Bifenazate; LC-ESI-QFT; MS2; CE: 120%; R=15000; [M+H]+
Name: Bifenazate
Name: propan-2-yl N-(2-methoxy-5-phenylanilino)carbamate
Formula: C17H20N2O3
Exact mass: 300.1473925
SMILES: CC(C)OC(=O)NNC1=C(C=CC(=C1)C2=CC=CC=C2)OC
InChI: InChI=1S/C17H20N2O3/c1-12(2)22-17(20)19-18-15-11-14(9-10-16(15)21-3)13-7-5-4-6-8-13/h4-12,18H,1-3H3,(H,19,20)
Instrument: Exploris 240 Thermo Scientific
Instrument type: LC-ESI-QFT
Ms type: MS2
Ion mode: POSITIVE
Ionization: ESI
Fragmentation mode: HCD
Collision energy: 120 % (nominal)
Resolution: 15000
Column name: XBridge C18 3.5um, 2.1x50mm, Waters
Retention time: 9.760 min
Base peak: 198.091
Precursor m/z: 301.1547
Precursor type: [M+H]+
m/z	relative intensity	assigned
65.0385	162	C5H5+
77.0385	53	C6H5+
91.054	84	C7H7+
92.0495	30	C6H6N+
93.0572	157	C6H7N+
103.0544	20	C8H7+
115.0541	604	C9H7+
116.0495	26	C8H6N+
126.0466	29	C10H6+
127.0541	91	C10H7+
128.062	379	C10H8+
129.0699	104	C10H9+
139.0542	136	C11H7+
140.0491	24	C10H6N+
141.0699	177	C11H9+
145.0649	67	C10H9O+
150.0463	56	C12H6+
151.0543	102	C12H7+
152.0619	999	C12H8+
153.0566	49	C11H7N+
154.0648	66	C11H8N+
155.06	110	C10H7N2+
156.0806	792	C11H10N+
166.065	191	C12H8N+
167.0728	384	C12H9N+
168.0805	77	C12H10N+
169.0648	100	C12H9O+
169.0878	51	C12H11N+
179.0601	50	C12H7N2+
