Mass spectrum: N-Desmethylrosuvastatin; LC-ESI-QFT; MS2; CE: 45%; R=17500; [M+H]+
Name: N-Desmethylrosuvastatin
Name: 7-[4-(4-fluorophenyl)-2-(methanesulfonamido)-6-propan-2-ylpyrimidin-5-yl]-3,5-dihydroxyhept-6-enoic acid
Formula: C21H26FN3O6S
Exact mass: 467.1526348
SMILES: CC(C)C1=NC(=NC(=C1C=CC(CC(CC(=O)O)O)O)C2=CC=C(C=C2)F)NS(=O)(=O)C
InChI: InChI=1S/C21H26FN3O6S/c1-12(2)19-17(9-8-15(26)10-16(27)11-18(28)29)20(13-4-6-14(22)7-5-13)24-21(23-19)25-32(3,30)31/h4-9,12,15-16,26-27H,10-11H2,1-3H3,(H,28,29)(H,23,24,25)
Instrument: Exploris 240 Orbitrap Thermo Scientific
Instrument type: LC-ESI-QFT
Ms type: MS2
Ion mode: POSITIVE
Ionization: ESI
Fragmentation mode: HCD
Collision energy: 45 % (nominal)
Resolution: 17500
Column name: XBridge C18 3.5um, 2.1x50mm, Waters
Retention time: 5.375 min
Base peak: 468.1593
Precursor m/z: 468.1599
Precursor type: [M+H]+
m/z	relative intensity	assigned
71.0126	57	C3H3O2+
89.0232	57	C3H5O3+
97.0284	59	C5H5O2+
133.076	24	C8H9N2+
137.1072	16	C8H13N2+
147.0914	59	C9H11N2+
175.0667	165	C4H14FNO3S+
189.0824	52	C11H10FN2+
202.0781	32	C5H15FN2O3S+
203.0854	120	C11H10FN3+
215.0849	44	C12H10FN3+
216.0934	92	C17H12+
225.0818	26	C8H16FNO3S+
228.0933	79	C18H12+
230.1083	69	C13H13FN3+
232.1242	18	C10H20N2O2S+
240.0918	79	C11H16N2O2S+
242.1083	367	C11H18N2O2S+
243.1171	150	C19H15+
244.1245	999	C14H15FN3+
256.1244	620	C15H15FN3+
257.1318	93	C12H21N2O2S+
258.1399	933	C15H17FN3+
267.1182	22	C18H16FO+
282.1404	50	C17H17FN3+
284.1554	52	C14H24N2O2S+
286.1349	997	C16H17FN3O+
294.1409	106	C15H22N2O2S+
300.1506	164	C17H19FN3O+
320.0859	94	C20H16O2S+
330.1608	89	C15H26N2O4S+
362.1328	220	C18H21FN3O2S+
364.1124	970	C17H19FN3O3S+
386.1342	24	C19H20N3O6+
390.1827	343	C20H25FN3O4+
406.1599	32	C20H25FN3O3S+
408.1383	448	C19H23FN3O4S+
432.1395	163	C21H23FN3O4S+
450.1502	36	C21H25FN3O5S+
468.1598	888	C21H27FN3O6S+
