Mass spectrum: Carfentrazone-ethyl; LC-ESI-QFT; MS2; CE: 90%; R=15000; [M+H]+
Name: Carfentrazone-ethyl
Name: ethyl 2-chloro-3-[2-chloro-5-[4-(difluoromethyl)-3-methyl-5-oxo-1,2,4-triazol-1-yl]-4-fluorophenyl]propanoate
Formula: C15H14Cl2F3N3O3
Exact mass: 411.0364313
SMILES: CCOC(=O)C(CC1=CC(=C(C=C1Cl)F)N2C(=O)N(C(=N2)C)C(F)F)Cl
InChI: InChI=1S/C15H14Cl2F3N3O3/c1-3-26-13(24)10(17)4-8-5-12(11(18)6-9(8)16)23-15(25)22(14(19)20)7(2)21-23/h5-6,10,14H,3-4H2,1-2H3
Instrument: Exploris 240 Thermo Scientific
Instrument type: LC-ESI-QFT
Ms type: MS2
Ion mode: POSITIVE
Ionization: ESI
Fragmentation mode: HCD
Collision energy: 90 % (nominal)
Resolution: 15000
Column name: XBridge C18 3.5um, 2.1x50mm, Waters
Retention time: 10.983 min
Base peak: 412.0433
Precursor m/z: 412.0437
Precursor type: [M+H]+
m/z	relative intensity	assigned
60.0245	43	C2H3FN+
74.0036	147	C2HFNO+
87.0351	24	C3H4FN2+
107.0295	45	C7H4F+
116.9902	54	C5H3ClF+
132.0245	106	C8H3FN+
133.0321	81	C8H4FN+
134.0398	158	C8H5FN+
140.9899	731	C2H2ClF2N3+
141.9985	55	C2HF3N2O2+
147.0354	18	C8H4FN2+
148.0305	51	C7H3FN3+
151.0431	48	C5H9ClFN2+
152.0503	29	C8H7FNO+
153.998	27	C8H4ClF+
156.0006	127	C7H4ClFN+
161.0265	77	C9H4FNO+
165.9853	32	C8H2ClFN+
168.0009	436	C8H4ClFN+
169.009	285	C8H5ClFN+
169.9927	168	C3H3ClF2N3O+
176.0379	125	C9H5FN2O+
176.9666	999	C2H3Cl2F2N3+
183.0117	138	C11H2FNO+
183.9961	41	C8H4ClFNO+
192.9967	41	C9H3ClFN2+
194.0047	35	C9H4ClFN2+
194.988	156	C9H3ClFNO+
195.996	322	C9H4ClFNO+
197.0039	56	C9H5ClFNO+
198.0109	182	C7H2F2N3O2+
203.9778	48	C8H5Cl2FN+
206.0278	47	C10H4F2N2O+
207.0357	96	C13H4FN2+
211.0062	122	C12H2FNO2+
223.9906	255	C10H4ClFNO2+
240.9971	112	C13HF2NO2+
242.0052	78	C10H5ClF2N2O+
252.033	29	C14H5FN2O2+
