Mass spectrum: Penoxsulam; LC-ESI-QFT; MS2; CE: 30%; R=15000; [M-H]-
Name: Penoxsulam
Name: 2-(2,2-difluoroethoxy)-N-(5,8-dimethoxy-[1,2,4]triazolo[1,5-c]pyrimidin-2-yl)-6-(trifluoromethyl)benzenesulfonamide
Formula: C16H14F5N5O5S
Exact mass: 483.0635806
SMILES: COC1=CN=C(N2C1=NC(=N2)NS(=O)(=O)C3=C(C=CC=C3OCC(F)F)C(F)(F)F)OC
InChI: InChI=1S/C16H14F5N5O5S/c1-29-10-6-22-15(30-2)26-13(10)23-14(24-26)25-32(27,28)12-8(16(19,20)21)4-3-5-9(12)31-7-11(17)18/h3-6,11H,7H2,1-2H3,(H,24,25)
Instrument: Exploris 240 Thermo Scientific
Instrument type: LC-ESI-QFT
Ms type: MS2
Ion mode: NEGATIVE
Ionization: ESI
Fragmentation mode: HCD
Collision energy: 30 % (nominal)
Resolution: 15000
Column name: XBridge C18 3.5um, 2.1x50mm, Waters
Retention time: 6.420 min
Base peak: 482.0567
Precursor m/z: 482.0563
Precursor type: [M-H]-
m/z	relative intensity	assigned
61.0096	127	C2H2FO-
81.0158	100	C2H3F2O-
179.0578	262	C4H9F4NO2-
205.0282	15	C9H5F4O-
221.9844	40	C9HFNO5-
353.075	43	C11H11F4N5O4-
386.0182	126	C10H8F4N5O5S-
452.0102	95	C14H7F5N5O5S-
482.0569	999	C16H13F5N5O5S-
