Mass spectrum: Imatinib; LC-ESI-QFT; MS2; CE: 40%; R=15000; [M+H]+
Name: Imatinib
Name: 4-[(4-methylpiperazin-1-yl)methyl]-N-[4-methyl-3-[(4-pyridin-3-ylpyrimidin-2-yl)amino]phenyl]benzamide
Formula: C29H31N7O
Exact mass: 493.2590086
SMILES: CC1=C(C=C(C=C1)NC(=O)C2=CC=C(C=C2)CN3CCN(CC3)C)NC4=NC=CC(=N4)C5=CN=CC=C5
InChI: InChI=1S/C29H31N7O/c1-21-5-10-25(18-27(21)34-29-31-13-11-26(33-29)24-4-3-12-30-19-24)32-28(37)23-8-6-22(7-9-23)20-36-16-14-35(2)15-17-36/h3-13,18-19H,14-17,20H2,1-2H3,(H,32,37)(H,31,33,34)
Instrument: Exploris 240 Thermo Scientific
Instrument type: LC-ESI-QFT
Ms type: MS2
Ion mode: POSITIVE
Ionization: ESI
Fragmentation mode: HCD
Collision energy: 40 % (nominal)
Resolution: 15000
Column name: XBridge C18 3.5um, 2.1x50mm, Waters
Retention time: 4.568 min
Base peak: 247.6363
Precursor m/z: 494.2663
Precursor type: [M+H]+
m/z	relative intensity	assigned
56.0494	174	C3H6N+
58.0651	403	C3H8N+
70.0651	364	C4H8N+
72.0809	38	C4H10N+
83.0605	24	C4H7N2+
84.0683	45	C4H8N2+
90.0464	136	C7H6+
91.0544	123	C7H7+
97.076	67	C5H9N2+
99.0916	169	C5H11N2+
104.0494	105	C7H6N+
118.0412	123	C8H6O+
119.0494	184	C8H7O+
121.0761	51	C7H9N2+
131.0491	60	C9H7O+
131.0606	301	C8H7N2+
193.0886	45	C14H11N+
194.0965	290	C14H12N+
202.0777	380	C16H10+
206.0837	148	C14H10N2+
220.0761	49	C15H10NO+
221.1074	51	C15H13N2+
222.0913	597	C15H12NO+
223.1002	156	C15H13NO+
238.1101	158	C15H14N2O+
247.0866	879	C16H11N2O+
265.0968	189	C14H11N5O+
276.1245	33	C16H14N5+
378.1354	999	C23H16N5O+
379.1416	91	C23H17N5O+
