Mass spectrum: Hexaflumuron; LC-ESI-QFT; MS2; CE: 75%; R=15000; [M-H]-
Name: Hexaflumuron
Name: N-[[3,5-dichloro-4-(1,1,2,2-tetrafluoroethoxy)phenyl]carbamoyl]-2,6-difluorobenzamide
Formula: C16H8Cl2F6N2O3
Exact mass: 459.9816168
SMILES: C1=CC(=C(C(=C1)F)C(=O)NC(=O)NC2=CC(=C(C(=C2)Cl)OC(C(F)F)(F)F)Cl)F
InChI: InChI=1S/C16H8Cl2F6N2O3/c17-7-4-6(5-8(18)12(7)29-16(23,24)14(21)22)25-15(28)26-13(27)11-9(19)2-1-3-10(11)20/h1-5,14H,(H2,25,26,27,28)
Instrument: Q Exactive Plus
Instrument type: LC-ESI-QFT
Ms type: MS2
Ion mode: NEGATIVE
Ionization: ESI
Fragmentation mode: HCD
Collision energy: 75 % (nominal)
Resolution: 15000
Column name: XBridge C18 3.5um, 2.1x50mm, Waters
Retention time: 13.319 min
Base peak: 458.9744
Precursor m/z: 458.9743
Precursor type: [M-H]-
Precursor intensity: 25047868.02
m/z	relative intensity	assigned
68.9957	30	CF3-
73.0082	43	C6H-
93.0146	656	C6H2F-
96.9908	163	C2F3O-
103.0062	20	C6HNO-
113.0209	320	C6H3F2-
174.9597	999	C6H3Cl2NO-
185.9517	239	C7H2Cl2NO-
199.9551	170	C7H2Cl2N2O-
