Mass spectrum: Monuron; LC-ESI-QFT; MS2; CE: 120%; R=15000; [M+H]+
Name: Monuron
Name: 3-(4-chlorophenyl)-1,1-dimethylurea
Formula: C9H11ClN2O
Exact mass: 198.0559907
SMILES: CN(C)C(=O)NC1=CC=C(Cl)C=C1
InChI: InChI=1S/C9H11ClN2O/c1-12(2)9(13)11-8-5-3-7(10)4-6-8/h3-6H,1-2H3,(H,11,13)
Instrument: Q Exactive Plus
Instrument type: LC-ESI-QFT
Ms type: MS2
Ion mode: POSITIVE
Ionization: ESI
Fragmentation mode: HCD
Collision energy: 120 % (nominal)
Resolution: 15000
Column name: XBridge C18 3.5um, 2.1x50mm, Waters
Retention time: 5.931 min
Base peak: 199.0633
Precursor m/z: 199.0633
Precursor type: [M+H]+
Precursor intensity: 1049607701.31
m/z	relative intensity	assigned
56.0131	78	C2H2NO+
72.0444	999	C3H6NO+
72.984	29	C3H2Cl+
75.0229	51	C6H3+
90.0337	13	C6H4N+
91.0416	15	C6H5N+
98.9996	247	C5H4Cl+
126.0106	63	C6H5ClN+
129.0103	15	C6H6ClO+
139.006	17	C6H4ClN2+
