Mass spectrum: Apixaban; LC-ESI-QFT; MS2; CE: 60%; R=15000; [M+H]+
Name: Apixaban
Name: 1-(4-methoxyphenyl)-7-oxo-6-[4-(2-oxopiperidin-1-yl)phenyl]-4,5-dihydropyrazolo[3,4-c]pyridine-3-carboxamide
Name: 1-(4-methoxyphenyl)-7-oxidanylidene-6-[4-(2-oxidanylidenepiperidin-1-yl)phenyl]-4,5-dihydropyrazolo[3,4-c]pyridine-3-carboxamide
Formula: C25H25N5O4
Exact mass: 459.1906543
SMILES: COC1=CC=C(C=C1)N2C3=C(CCN(C3=O)C4=CC=C(C=C4)N5CCCCC5=O)C(=N2)C(=O)N
InChI: InChI=1S/C25H25N5O4/c1-34-19-11-9-18(10-12-19)30-23-20(22(27-30)24(26)32)13-15-29(25(23)33)17-7-5-16(6-8-17)28-14-3-2-4-21(28)31/h5-12H,2-4,13-15H2,1H3,(H2,26,32)
Instrument: Q Exactive
Instrument type: LC-ESI-QFT
Ms type: MS2
Ion mode: POSITIVE
Ionization: ESI
Fragmentation mode: HCD
Collision energy: 60 % (nominal)
Resolution: 15000
Column name: XBridge C18 3.5um, 2.1x50mm, Waters
Retention time: 6.009 min
Base peak: 460.1976
Precursor m/z: 460.1979
Precursor type: [M+H]+
Precursor intensity: 367202483.03
m/z	relative intensity	assigned
53.0386	30	C4H5+
79.0542	131	C6H7+
92.0256	166	C6H4O+
95.0491	618	C6H7O+
105.0448	202	C6H5N2+
108.0569	30	C7H8O+
122.06	29	C7H8NO+
125.0596	331	C7H9O2+
134.0599	105	C8H8NO+
135.0553	175	C7H7N2O+
140.0496	46	C10H6N+
155.0601	55	C10H7N2+
156.0681	190	C10H8N2+
168.0684	83	C11H8N2+
172.0754	145	C11H10NO+
184.063	374	C11H8N2O+
185.0708	553	C11H9N2O+
199.0865	999	C12H11N2O+
202.1104	34	C12H14N2O+
241.0604	82	C13H9N2O3+
