Mass spectrum: Ketotifen; LC-ESI-QFT; MS2; CE: 25%; R=15000; [M+H]+
Name: Ketotifen
Name: 2-(1-methylpiperidin-4-ylidene)-6-thiatricyclo[8.4.0.03,7]tetradeca-1(14),3(7),4,10,12-pentaen-8-one
Formula: C19H19NOS
Exact mass: 309.1187352
SMILES: CN1CCC(=C2C3=C(C(=O)CC4=CC=CC=C42)SC=C3)CC1
InChI: InChI=1S/C19H19NOS/c1-20-9-6-13(7-10-20)18-15-5-3-2-4-14(15)12-17(21)19-16(18)8-11-22-19/h2-5,8,11H,6-7,9-10,12H2,1H3
Instrument: Exploris 240 Thermo Scientific
Instrument type: LC-ESI-QFT
Ms type: MS2
Ion mode: POSITIVE
Ionization: ESI
Fragmentation mode: HCD
Collision energy: 25 % (nominal)
Resolution: 15000
Column name: XBridge C18 3.5um, 2.1x50mm, Waters
Retention time: 4.523 min
Base peak: 310.1256
Precursor m/z: 310.126
Precursor type: [M+H]+
m/z	relative intensity	assigned
58.065	13	C3H8N+
82.0651	27	C5H8N+
94.065	12	C6H8N+
96.0807	999	C6H10N+
97.0885	98	C6H11N+
202.0775	123	C16H10+
213.0368	42	C13H9OS+
249.074	19	C17H13S+
310.126	454	C19H20NOS+
