Mass spectrum: 3-(3,5-Dichlorophenyl)-N-(1-methylethyl)-2,4-dioxo-1-imidazolidinecarboxamide; LC-ESI-QFT; MS2; CE: 75%; R=15000; [M+H]+
Name: 3-(3,5-Dichlorophenyl)-N-(1-methylethyl)-2,4-dioxo-1-imidazolidinecarboxamide
Name: Iprodione
Name: 3-(3,5-dichlorophenyl)-2,4-dioxo-N-propan-2-ylimidazolidine-1-carboxamide
Formula: C13H13Cl2N3O3
Exact mass: 329.0333966
SMILES: CC(C)NC(=O)N1CC(=O)N(C1=O)C1=CC(Cl)=CC(Cl)=C1
InChI: InChI=1S/C13H13Cl2N3O3/c1-7(2)16-12(20)17-6-11(19)18(13(17)21)10-4-8(14)3-9(15)5-10/h3-5,7H,6H2,1-2H3,(H,16,20)
Instrument: Q Exactive Plus
Instrument type: LC-ESI-QFT
Ms type: MS2
Ion mode: POSITIVE
Ionization: ESI
Fragmentation mode: HCD
Collision energy: 75 % (nominal)
Resolution: 15000
Column name: XBridge C18 3.5um, 2.1x50mm, Waters
Retention time: 10.931 min
Base peak: 164.9846
Precursor m/z: 330.0407
Precursor type: [M+H]+
Precursor intensity: 12843620.78
m/z	relative intensity	assigned
56.0131	999	C2H2NO+
74.0236	22	C2H4NO2+
123.9949	15	C6H3ClN+
127.0184	107	C6H6ClN+
132.9609	10	C5H3Cl2+
138.0105	69	C7H5ClN+
139.0062	21	C6H4ClN2+
139.0185	77	C7H6ClN+
146.9767	22	C6H5Cl2+
152.9975	129	C7H4ClNO+
159.9714	28	C6H4Cl2N+
160.9795	35	C6H5Cl2N+
161.9871	226	C6H6Cl2N+
162.9711	12	C6H5Cl2O+
167.0133	66	C8H6ClNO+
172.9668	49	C6H3Cl2N2+
173.9872	408	C7H6Cl2N+
187.9665	177	C7H4Cl2NO+
199.9668	16	C8H4Cl2NO+
