Mass spectrum: Naloxone; LC-ESI-QFT; MS2; CE: 60%; R=15000; [M+H]+
Name: Naloxone
Name: (4R,4aS,7aR,12bS)-4a,9-bis(oxidanyl)-3-prop-2-enyl-2,4,5,6,7a,13-hexahydro-1H-4,12-methanobenzofuro[3,2-e]isoquinolin-7-one
Formula: C19H21NO4
Exact mass: 327.1470582
SMILES: C=CCN1CCC23C4C(=O)CCC2(C1CC5=C3C(=C(C=C5)O)O4)O
InChI: InChI=1S/C19H21NO4/c1-2-8-20-9-7-18-15-11-3-4-12(21)16(15)24-17(18)13(22)5-6-19(18,23)14(20)10-11/h2-4,14,17,21,23H,1,5-10H2
Instrument: Exploris 240 Thermo Scientific
Instrument type: LC-ESI-QFT
Ms type: MS2
Ion mode: POSITIVE
Ionization: ESI
Fragmentation mode: HCD
Collision energy: 60 % (nominal)
Resolution: 15000
Column name: XBridge C18 3.5um, 2.1x50mm, Waters
Retention time: 2.062 min
Base peak: 328.1539
Precursor m/z: 328.1543
Precursor type: [M+H]+
m/z	relative intensity	assigned
55.0179	93	C3H3O+
79.0543	84	C6H7+
80.0497	70	C5H6N+
89.0388	95	C7H5+
91.054	180	C7H7+
95.0493	75	C6H7O+
103.0543	72	C8H7+
115.0543	470	C9H7+
117.0576	103	C8H7N+
118.0417	70	C8H6O+
118.065	63	C8H8N+
128.0501	52	C9H6N+
128.0621	714	C10H8+
131.0497	126	C9H7O+
139.0542	124	C11H7+
141.0699	186	C11H9+
144.0571	96	C10H8O+
145.065	129	C10H9O+
152.0621	412	C12H8+
153.0699	281	C12H9+
154.0651	227	C11H8N+
156.0803	161	C11H10N+
157.0653	164	C11H9O+
165.0702	167	C13H9+
166.0656	123	C12H8N+
167.0729	119	C12H9N+
168.0808	69	C12H10N+
169.0655	64	C12H9O+
171.0439	90	C11H7O2+
180.0807	178	C13H10N+
182.0605	99	C12H8NO+
183.0677	477	C12H9NO+
184.0523	274	C12H8O2+
184.0758	159	C12H10NO+
185.0599	237	C12H9O2+
194.0961	60	C14H12N+
196.0763	58	C13H10NO+
202.0778	999	C16H10+
212.0704	366	C13H10NO2+
