Mass spectrum: 4-(Methylthio)benzaldehyde; LC-ESI-QFT; MS2; CE: 30%; R=15000; [M+H]+
Name: 4-(Methylthio)benzaldehyde
Name: 4-methylsulfanylbenzaldehyde
Formula: C8H8OS
Exact mass: 152.0295859
SMILES: CSC1=CC=C(C=O)C=C1
InChI: InChI=1S/C8H8OS/c1-10-8-4-2-7(6-9)3-5-8/h2-6H,1H3
Instrument: Exploris 240 Thermo Scientific
Instrument type: LC-ESI-QFT
Ms type: MS2
Ion mode: POSITIVE
Ionization: ESI
Fragmentation mode: HCD
Collision energy: 30 % (nominal)
Resolution: 15000
Column name: XBridge C18 3.5um, 2.1x50mm, Waters
Retention time: 6.327 min
Base peak: 132.9581
Precursor m/z: 153.0369
Precursor type: [M+H]+
m/z	relative intensity	assigned
109.0106	141	C6H5S+
125.0418	254	C7H9S+
153.0368	999	C8H9OS+
