Mass spectrum: Dorzolamide; LC-ESI-QFT; MS2; CE: 50%; R=15000; [M+H]+
Name: Dorzolamide
Name: (4S,6S)-4-(ethylamino)-6-methyl-7,7-bis(oxidanylidene)-5,6-dihydro-4H-thieno[2,3-b]thiopyran-2-sulfonamide
Name: 4-(ethylamino)-6-methyl-7,7-dioxo-5,6-dihydro-4H-thieno[2,3-b]thiopyran-2-sulfonamide
Formula: C10H16N2O4S3
Exact mass: 324.02722
SMILES: CCNC1CC(S(=O)(=O)C2=C1C=C(S2)S(=O)(=O)N)C
InChI: InChI=1S/C10H16N2O4S3/c1-3-12-8-4-6(2)18(13,14)10-7(8)5-9(17-10)19(11,15)16/h5-6,8,12H,3-4H2,1-2H3,(H2,11,15,16)
Instrument: Exploris 240 Thermo Scientific
Instrument type: LC-ESI-QFT
Ms type: MS2
Ion mode: POSITIVE
Ionization: ESI
Fragmentation mode: HCD
Collision energy: 50 % (nominal)
Resolution: 15000
Column name: XBridge C18 3.5um, 2.1x50mm, Waters
Retention time: 1.509 min
Base peak: 325.0341
Precursor m/z: 325.0345
Precursor type: [M+H]+
m/z	relative intensity	assigned
55.0178	14	C3H3O+
63.9851	17	H2NOS+
65.0385	26	C5H5+
68.9793	14	C3HS+
70.9949	19	C3H3S+
79.0544	53	C6H7+
84.0027	33	C4H4S+
91.0542	999	C7H7+
94.995	38	C5H3S+
102.0466	66	C8H6+
121.0108	29	C7H5S+
123.0262	165	C7H7S+
126.9672	55	C5H3S2+
127.9748	30	C5H4S2+
134.0184	351	C8H6S+
135.0263	652	C8H7S+
136.0342	73	C8H8S+
138.967	41	C6H3S2+
151.0212	129	C8H7OS+
152.9828	25	C7H5S2+
154.962	67	C6H3OS2+
154.9856	34	C6H5NS2+
155.9699	44	C6H4OS2+
202.0779	244	C8H14N2O2S+
202.9286	66	C6H3O2S3+
