Mass spectrum: Prazosin; LC-ESI-QFT; MS2; CE: 180%; R=17500; [M+H]+
Name: Prazosin
Name: [4-(4-amino-6,7-dimethoxyquinazolin-2-yl)piperazin-1-yl]-(furan-2-yl)methanone
Formula: C19H21N5O4
Exact mass: 383.159354152
SMILES: COC1=C(C=C2C(=C1)C(=NC(=N2)N3CCN(CC3)C(=O)C4=CC=CO4)N)OC
InChI: InChI=1S/C19H21N5O4/c1-26-15-10-12-13(11-16(15)27-2)21-19(22-17(12)20)24-7-5-23(6-8-24)18(25)14-4-3-9-28-14/h3-4,9-11H,5-8H2,1-2H3,(H2,20,21,22)
Instrument: Exploris 240 Orbitrap Thermo Scientific
Instrument type: LC-ESI-QFT
Ms type: MS2
Ion mode: POSITIVE
Ionization: ESI
Fragmentation mode: HCD
Collision energy: 180 % (nominal)
Resolution: 17500
Column name: XBridge C18 3.5um, 2.1x50mm, Waters
Retention time: 4.835 min
Base peak: 384.1665
Precursor m/z: 384.1666
Precursor type: [M+H]+
m/z	relative intensity	assigned
50.0152	41	C4H2+
51.023	61	C4H3+
52.031	29	C4H4+
53.0023	63	C3HO+
63.023	194	C5H3+
64.0183	69	C4H2N+
64.0309	25	C5H4+
65.0385	46	C5H5+
67.018	65	C4H3O+
76.0184	39	C5H2N+
77.0262	65	C5H3N+
78.034	114	C5H4N+
79.0418	44	C5H5N+
80.0498	24	C5H6N+
83.013	30	C4H3O2+
90.0339	91	C6H4N+
91.0418	33	C6H5N+
94.0288	25	C5H4NO+
95.0129	999	C5H3O2+
104.0498	29	C7H6N+
105.0447	165	C6H5N2+
106.0528	30	C6H6N2+
120.0085	30	C6H2NO2+
133.0398	39	C7H5N2O+
