Mass spectrum: HFPO-PeA; LC-ESI-QFT; MS2; CE: 15%; R=17500; [M-H]-
Name: HFPO-PeA
Name: Perfluoro(2,5,8,11-tetramethyl-3,6,9,12-tetraoxapentadecanoic) acid
Name: 2,3,3,3-tetrafluoro-2-[1,1,2,3,3,3-hexafluoro-2-[1,1,2,3,3,3-hexafluoro-2-[1,1,2,3,3,3-hexafluoro-2-(1,1,2,2,3,3,3-heptafluoropropoxy)propoxy]propoxy]propoxy]propanoic acid
Formula: C15HF29O6
Exact mass: 827.931006132
SMILES: C(=O)(C(C(F)(F)F)(OC(C(C(F)(F)F)(OC(C(C(F)(F)F)(OC(C(C(F)(F)F)(OC(C(C(F)(F)F)(F)F)(F)F)F)(F)F)F)(F)F)F)(F)F)F)O
InChI: InChI=1S/C15HF29O6/c16-2(1(45)46,7(22,23)24)47-13(39,40)4(19,9(28,29)30)49-15(43,44)6(21,11(34,35)36)50-14(41,42)5(20,10(31,32)33)48-12(37,38)3(17,18)8(25,26)27/h(H,45,46)
Instrument: Exploris 240 Orbitrap Thermo Scientific
Instrument type: LC-ESI-QFT
Ms type: MS2
Ion mode: NEGATIVE
Ionization: ESI
Fragmentation mode: HCD
Collision energy: 15 % (nominal)
Resolution: 17500
Column name: XBridge C18 3.5um, 2.1x50mm, Waters
Retention time: 14.754 min
Base peak: 516.9543
Precursor m/z: 826.9237
Precursor type: [M-H]-
m/z	relative intensity	assigned
184.9842	291	C3F7O-
350.9694	999	C6F13O2-
