Mass spectrum: Hesperitin; LC-ESI-QFT; MS2; CE: 15%; R=17500; [M-H]-
Name: Hesperitin
Name: 5,7-dihydroxy-2-(3-hydroxy-4-methoxyphenyl)-3,4-dihydro-2H-1-benzopyran-4-one
Name: 5,7-dihydroxy-2-(3-hydroxy-4-methoxyphenyl)-2,3-dihydrochromen-4-one
Formula: C16H14O6
Exact mass: 302.0790382
SMILES: COC1=C(C=C(C=C1)C2CC(=O)C3=C(C=C(C=C3O2)O)O)O
InChI: InChI=1S/C16H14O6/c1-21-13-3-2-8(4-10(13)18)14-7-12(20)16-11(19)5-9(17)6-15(16)22-14/h2-6,14,17-19H,7H2,1H3
Instrument: Exploris 240 Orbitrap Thermo Scientific
Instrument type: LC-ESI-QFT
Ms type: MS2
Ion mode: NEGATIVE
Ionization: ESI
Fragmentation mode: HCD
Collision energy: 15 % (nominal)
Resolution: 17500
Column name: XBridge C18 3.5um, 2.1x50mm, Waters
Retention time: 6.311 min
Base peak: 301.0717
Precursor m/z: 301.0718
Precursor type: [M-H]-
m/z	relative intensity	assigned
286.0491	3	C15H10O6-
301.0719	999	C16H13O6-
