Mass spectrum: Torasemidecarboxylic acid; LC-ESI-QFT; MS2; CE: 120%; R=17500; [M-H]-
Name: Torasemidecarboxylic acid
Name: Torsemide Carboxylic Acid
Name: 3-[[3-(propan-2-ylcarbamoylsulfamoyl)pyridin-4-yl]amino]benzoic acid
Formula: C16H18N4O5S
Exact mass: 378.0997907
SMILES: CC(C)NC(=O)NS(=O)(=O)C1=C(C=CN=C1)NC2=CC=CC(=C2)C(=O)O
InChI: InChI=1S/C16H18N4O5S/c1-10(2)18-16(23)20-26(24,25)14-9-17-7-6-13(14)19-12-5-3-4-11(8-12)15(21)22/h3-10H,1-2H3,(H,17,19)(H,21,22)(H2,18,20,23)
Instrument: Exploris 240 Orbitrap Thermo Scientific
Instrument type: LC-ESI-QFT
Ms type: MS2
Ion mode: NEGATIVE
Ionization: ESI
Fragmentation mode: HCD
Collision energy: 120 % (nominal)
Resolution: 17500
Column name: XBridge C18 3.5um, 2.1x50mm, Waters
Retention time: 4.449 min
Base peak: 377.0924
Precursor m/z: 377.0925
Precursor type: [M-H]-
m/z	relative intensity	assigned
50.0036	27	C3N-
56.9805	36	C2HS-
57.9757	153	CNS-
60.9754	36	CHOS-
61.9705	167	NOS-
63.9625	168	O2S-
65.0147	117	C3HN2-
77.9655	999	NO2S-
78.9735	147	HNO2S-
79.9814	32	H2NO2S-
91.0301	295	C5H3N2-
91.0426	28	C6H5N-
92.0381	105	C5H4N2-
92.0507	61	C6H6N-
93.0458	396	C5H5N2-
94.0298	37	C5H4NO-
107.0488	44	C5H5N3-
108.033	154	C5H4N2O-
108.0568	37	C5H6N3-
140.0506	20	C10H6N-
141.0458	57	C9H5N2-
165.0462	34	C11H5N2-
167.0616	880	C11H7N2-
