Mass spectrum: Diethofencarb; LC-ESI-QFT; MS2; CE: 90%; R=15000; [M+H]+
Name: Diethofencarb
Name: propan-2-yl N-(3,4-diethoxyphenyl)carbamate
Formula: C14H21NO4
Exact mass: 267.1470582
SMILES: CCOC1=C(C=C(C=C1)NC(=O)OC(C)C)OCC
InChI: InChI=1S/C14H21NO4/c1-5-17-12-8-7-11(9-13(12)18-6-2)15-14(16)19-10(3)4/h7-10H,5-6H2,1-4H3,(H,15,16)
Instrument: Exploris 240 Thermo Scientific
Instrument type: LC-ESI-QFT
Ms type: MS2
Ion mode: POSITIVE
Ionization: ESI
Fragmentation mode: HCD
Collision energy: 90 % (nominal)
Resolution: 15000
Column name: XBridge C18 3.5um, 2.1x50mm, Waters
Retention time: 8.416 min
Base peak: 226.1072
Precursor m/z: 268.1543
Precursor type: [M+H]+
m/z	relative intensity	assigned
53.0386	30	C4H5+
68.0494	11	C4H6N+
78.0338	10	C5H4N+
80.0132	10	C4H2NO+
80.0495	104	C5H6N+
81.0335	29	C5H5O+
96.0442	45	C5H6NO+
97.0284	91	C5H5O2+
106.0288	40	C6H4NO+
108.0444	89	C6H6NO+
124.0392	999	C6H6NO2+
152.0708	28	C8H10NO2+
