Mass spectrum: Edoxaban; LC-ESI-QFT; MS2; CE: 30%; R=15000; [M-H]-
Name: Edoxaban
Name: Edoxaban impurity 5
Name: N`-(5-chloranylpyridin-2-yl)-N-[(1S,2R,4S)-4-(dimethylcarbamoyl)-2-[(5-methyl-6,7-dihydro-4H-[1,3]thiazolo[5,4-c]pyridin-2-yl)carbonylamino]cyclohexyl]ethanediamide
Formula: C24H30ClN7O4S
Exact mass: 547.1768511
SMILES: CN1CCC2=C(C1)SC(=N2)C(=O)NC3CC(CCC3NC(=O)C(=O)NC4=NC=C(C=C4)Cl)C(=O)N(C)C
InChI: InChI=1S/C24H30ClN7O4S/c1-31(2)24(36)13-4-6-15(27-20(33)21(34)30-19-7-5-14(25)11-26-19)17(10-13)28-22(35)23-29-16-8-9-32(3)12-18(16)37-23/h5,7,11,13,15,17H,4,6,8-10,12H2,1-3H3,(H,27,33)(H,28,35)(H,26,30,34)
Instrument: Q Exactive
Instrument type: LC-ESI-QFT
Ms type: MS2
Ion mode: NEGATIVE
Ionization: ESI
Fragmentation mode: HCD
Collision energy: 30 % (nominal)
Resolution: 15000
Column name: XBridge C18 3.5um, 2.1x50mm, Waters
Retention time: 4.841 min
Base peak: 546.1698
Precursor m/z: 546.1696
Precursor type: [M-H]-
Precursor intensity: 44107096.62
m/z	relative intensity	assigned
110.007	39	C5H4NS-
125.0179	51	C5H5N2S-
127.0069	574	C5H4ClN2-
137.0176	14	C6H5N2S-
138.0257	64	C6H6N2S-
153.0492	999	C7H9N2S-
210.1247	54	C10H16N3O2-
392.1131	27	C17H19ClN5O4-
