Mass spectrum: Phenylephrine 3-O-sulfate; LC-ESI-QFT; MS2; CE: 75%; R=17500; [M+H]+
Name: Phenylephrine 3-O-sulfate
Name: [3-[1-hydroxy-2-(methylamino)ethyl]phenyl] hydrogen sulfate
Formula: C9H13NO5S
Exact mass: 247.0514435
SMILES: CNCC(C1=CC(=CC=C1)OS(=O)(=O)O)O
InChI: InChI=1S/C9H13NO5S/c1-10-6-9(11)7-3-2-4-8(5-7)15-16(12,13)14/h2-5,9-11H,6H2,1H3,(H,12,13,14)
Instrument: Exploris 240 Orbitrap Thermo Scientific
Instrument type: LC-ESI-QFT
Ms type: MS2
Ion mode: POSITIVE
Ionization: ESI
Fragmentation mode: HCD
Collision energy: 75 % (nominal)
Resolution: 17500
Column name: XBridge C18 3.5um, 2.1x50mm, Waters
Retention time: 1.038 min
Base peak: 144.9877
Precursor m/z: 248.0587
Precursor type: [M+H]+
m/z	relative intensity	assigned
57.0572	47	C3H7N+
62.0184	47	C2H6S+
81.0697	64	C6H9+
91.0542	511	C7H7+
93.0698	30	C7H9+
94.0416	13	C6H6O+
105.0696	11	C8H9+
107.0491	77	C7H7O+
108.0569	23	C7H8O+
109.0647	443	C7H9O+
117.057	48	C8H7N+
118.0649	29	C8H8N+
119.0492	152	C8H7O+
121.0649	92	C8H9O+
122.0965	19	C8H12N+
132.0807	32	C9H10N+
134.0599	38	C8H8NO+
135.0678	488	C8H9NO+
149.0838	13	C9H11NO+
150.0913	999	C9H12NO+
