Mass spectrum: Triazophos; LC-ESI-QFT; MS2; CE: 45%; R=15000; [M+H]+
Name: Triazophos
Name: diethoxy-[(1-phenyl-1,2,4-triazol-3-yl)oxy]-sulfanylidene-lambda5-phosphane
Formula: C12H16N3O3PS
Exact mass: 313.064999
SMILES: CCOP(=S)(OCC)OC1=NN(C=N1)C2=CC=CC=C2
InChI: InChI=1S/C12H16N3O3PS/c1-3-16-19(20,17-4-2)18-12-13-10-15(14-12)11-8-6-5-7-9-11/h5-10H,3-4H2,1-2H3
Instrument: Exploris 240 Thermo Scientific
Instrument type: LC-ESI-QFT
Ms type: MS2
Ion mode: POSITIVE
Ionization: ESI
Fragmentation mode: HCD
Collision energy: 45 % (nominal)
Resolution: 15000
Column name: XBridge C18 3.5um, 2.1x50mm, Waters
Retention time: 9.744 min
Base peak: 314.072
Precursor m/z: 314.0723
Precursor type: [M+H]+
m/z	relative intensity	assigned
96.9507	74	H2O2PS+
114.9612	91	H4O3PS+
119.0603	65	C7H7N2+
124.982	27	C2H6O2PS+
162.066	999	C8H8N3O+
178.0432	66	C8H8N3S+
190.097	12	C10H12N3O+
