Mass spectrum: Paraxanthine; LC-ESI-QFT; MS2; CE: 180%; R=17500; [M+H]+
Name: Paraxanthine
Name: 1,7-dimethyl-3H-purine-2,6-dione
Formula: C7H8N4O2
Exact mass: 180.0647255
SMILES: CN1C=NC2=C1C(=O)N(C(=O)N2)C
InChI: InChI=1S/C7H8N4O2/c1-10-3-8-5-4(10)6(12)11(2)7(13)9-5/h3H,1-2H3,(H,9,13)
Instrument: Exploris 240 Orbitrap Thermo Scientific
Instrument type: LC-ESI-QFT
Ms type: MS2
Ion mode: POSITIVE
Ionization: ESI
Fragmentation mode: HCD
Collision energy: 180 % (nominal)
Resolution: 17500
Column name: XBridge C18 3.5um, 2.1x50mm, Waters
Retention time: 2.483 min
Base peak: 181.0718
Precursor m/z: 181.072
Precursor type: [M+H]+
m/z	relative intensity	assigned
42.0338	999	C2H4N+
54.0213	186	C2H2N2+
54.0338	77	C3H4N+
55.029	430	C2H3N2+
56.0133	51	C2H2NO+
58.0289	51	C2H4NO+
67.029	759	C3H3N2+
69.0447	374	C3H5N2+
