Mass spectrum: Pramiracetam; LC-ESI-QFT; MS2; CE: 45%; R=17500; [M+H]+
Name: Pramiracetam
Name: N-[2-[di(propan-2-yl)amino]ethyl]-2-(2-oxopyrrolidin-1-yl)acetamide
Formula: C14H27N3O2
Exact mass: 269.210327104
SMILES: CC(C)N(CCNC(=O)CN1CCCC1=O)C(C)C
InChI: InChI=1S/C14H27N3O2/c1-11(2)17(12(3)4)9-7-15-13(18)10-16-8-5-6-14(16)19/h11-12H,5-10H2,1-4H3,(H,15,18)
Instrument: Exploris 240 Orbitrap Thermo Scientific
Instrument type: LC-ESI-QFT
Ms type: MS2
Ion mode: POSITIVE
Ionization: ESI
Fragmentation mode: HCD
Collision energy: 45 % (nominal)
Resolution: 17500
Column name: XBridge C18 3.5um, 2.1x50mm, Waters
Retention time: 1.856 min
Base peak: 270.2173
Precursor m/z: 270.2176
Precursor type: [M+H]+
m/z	relative intensity	assigned
86.0965	17	C5H12N+
98.06	296	C5H8NO+
102.1278	42	C6H16N+
103.1234	3	C5H15N2+
125.0709	16	C6H9N2O+
126.0548	21	C6H8NO2+
128.1432	52	C8H18N+
168.1131	7	C8H14N3O+
169.0971	999	C8H13N2O2+
210.1597	18	C11H20N3O+
211.1441	4	C11H19N2O2+
228.1705	67	C11H22N3O2+
270.2176	176	C14H28N3O2+
