Mass spectrum: Eriodictyol; LC-ESI-QFT; MS2; CE: 15%; R=17500; [M+H]+
Name: Eriodictyol
Name: (+/-)-Eriodictyol
Name: 2-(3,4-dihydroxyphenyl)-5,7-dihydroxy-2,3-dihydrochromen-4-one
Formula: C15H12O6
Exact mass: 288.0633881
SMILES: C1C(OC2=CC(=CC(=C2C1=O)O)O)C3=CC(=C(C=C3)O)O
InChI: InChI=1S/C15H12O6/c16-8-4-11(19)15-12(20)6-13(21-14(15)5-8)7-1-2-9(17)10(18)3-7/h1-5,13,16-19H,6H2
Instrument: Exploris 240 Orbitrap Thermo Scientific
Instrument type: LC-ESI-QFT
Ms type: MS2
Ion mode: POSITIVE
Ionization: ESI
Fragmentation mode: HCD
Collision energy: 15 % (nominal)
Resolution: 17500
Column name: XBridge C18 3.5um, 2.1x50mm, Waters
Retention time: 5.359 min
Base peak: 289.0705
Precursor m/z: 289.0707
Precursor type: [M+H]+
m/z	relative intensity	assigned
163.039	8	C9H7O3+
289.0706	999	C15H13O6+
