Mass spectrum: N-Methylpregabalin; LC-ESI-QFT; MS2; CE: 30%; R=17500; [M-H]-
Name: N-Methylpregabalin
Name: 5-methyl-3-[(methylazaniumyl)methyl]hexanoate
Formula: C9H19NO2
Exact mass: 173.1415788
SMILES: CC(C)CC(CC(=O)O)CNC
InChI: InChI=1S/C9H19NO2/c1-7(2)4-8(6-10-3)5-9(11)12/h7-8,10H,4-6H2,1-3H3,(H,11,12)
Instrument: Exploris 240 Orbitrap Thermo Scientific
Instrument type: LC-ESI-QFT
Ms type: MS2
Ion mode: NEGATIVE
Ionization: ESI
Fragmentation mode: HCD
Collision energy: 30 % (nominal)
Resolution: 17500
Column name: XBridge C18 3.5um, 2.1x50mm, Waters
Retention time: 3.319 min
Base peak: 318.0643
Precursor m/z: 172.1343
Precursor type: [M-H]-
m/z	relative intensity	assigned
96.0454	16	C5H6NO-
154.1234	60	C9H16NO-
172.1343	999	C9H18NO2-
