Mass spectrum: Monuron; LC-ESI-QFT; MS2; CE: 150%; R=15000; [M+H]+
Name: Monuron
Name: 3-(4-chlorophenyl)-1,1-dimethylurea
Formula: C9H11ClN2O
Exact mass: 198.0559907
SMILES: CN(C)C(=O)NC1=CC=C(Cl)C=C1
InChI: InChI=1S/C9H11ClN2O/c1-12(2)9(13)11-8-5-3-7(10)4-6-8/h3-6H,1-2H3,(H,11,13)
Instrument: Q Exactive Plus
Instrument type: LC-ESI-QFT
Ms type: MS2
Ion mode: POSITIVE
Ionization: ESI
Fragmentation mode: HCD
Collision energy: 150 % (nominal)
Resolution: 15000
Column name: XBridge C18 3.5um, 2.1x50mm, Waters
Retention time: 5.931 min
Base peak: 199.0633
Precursor m/z: 199.0633
Precursor type: [M+H]+
Precursor intensity: 1049607701.31
m/z	relative intensity	assigned
56.0131	240	C2H2NO+
63.0228	35	C5H3+
72.0444	999	C3H6NO+
72.984	218	C3H2Cl+
74.0149	58	C6H2+
75.0228	217	C6H3+
90.034	13	C6H4N+
91.0413	36	C6H5N+
98.9995	481	C5H4Cl+
