Mass spectrum: Suberoylanilide hydroxamic acid; LC-ESI-QFT; MS2; CE: 90%; R=15000; [M+H]+
Name: Suberoylanilide hydroxamic acid
Name: Vorinostat
Name: N`-hydroxy-N-phenyloctanediamide
Formula: C14H20N2O3
Exact mass: 264.1473925
SMILES: C1=CC=C(C=C1)NC(=O)CCCCCCC(=O)NO
InChI: InChI=1S/C14H20N2O3/c17-13(15-12-8-4-3-5-9-12)10-6-1-2-7-11-14(18)16-19/h3-5,8-9,19H,1-2,6-7,10-11H2,(H,15,17)(H,16,18)
Instrument: Exploris 240 Thermo Scientific
Instrument type: LC-ESI-QFT
Ms type: MS2
Ion mode: POSITIVE
Ionization: ESI
Fragmentation mode: HCD
Collision energy: 90 % (nominal)
Resolution: 15000
Column name: XBridge C18 3.5um, 2.1x50mm, Waters
Retention time: 4.916 min
Base peak: 265.1544
Precursor m/z: 265.1547
Precursor type: [M+H]+
m/z	relative intensity	assigned
53.0385	74	C4H5+
55.0178	198	C3H3O+
55.0542	948	C4H7+
56.0495	28	C3H6N+
65.0387	35	C5H5+
67.0543	156	C5H7+
69.0336	24	C4H5O+
69.0698	277	C5H9+
77.0385	331	C6H5+
79.0541	77	C6H7+
81.07	29	C6H9+
83.0856	121	C6H11+
91.0542	171	C7H7+
92.0494	496	C6H6N+
93.0698	151	C7H9+
94.0651	999	C6H8N+
95.0491	262	C6H7O+
102.0912	22	C5H12NO+
103.0542	40	C8H7+
104.0494	62	C7H6N+
105.0448	151	C6H5N2+
120.0443	212	C7H6NO+
