Mass spectrum: Ethephon; LC-ESI-QFT; MS2; CE: 180%; R=15000; [M+H]+
Name: Ethephon
Name: 2-chloroethylphosphonic acid
Formula: C2H6ClO3P
Exact mass: 143.9743084
SMILES: C(CCl)P(=O)(O)O
InChI: InChI=1S/C2H6ClO3P/c3-1-2-7(4,5)6/h1-2H2,(H2,4,5,6)
Instrument: Exploris 240 Thermo Scientific
Instrument type: LC-ESI-QFT
Ms type: MS2
Ion mode: POSITIVE
Ionization: ESI
Fragmentation mode: HCD
Collision energy: 180 % (nominal)
Resolution: 15000
Column name: XBridge C18 3.5um, 2.1x50mm, Waters
Retention time: 1.051 min
Base peak: 132.9582
Precursor m/z: 144.9816
Precursor type: [M+H]+
m/z	relative intensity	assigned
46.9681	92	OP+
62.963	176	O2P+
62.9997	47	C2H4Cl+
64.9787	84	H2O2P+
80.9736	51	H2O3P+
98.9841	999	CH4ClO3+
