Mass spectrum: Nitrofurantoin; LC-ESI-QFT; MS2; CE: 15%; R=15000; [M-H]-
Name: Nitrofurantoin
Name: 1-[(5-Nitro-2-furanyl)methylideneamino]imidazolidine-2,4-dione
Name: 1-[(5-nitrofuran-2-yl)methylideneamino]imidazolidine-2,4-dione
Formula: C8H6N4O5
Exact mass: 238.0338193
SMILES: [O-][N+](=O)C1=CC=C(O1)C=NN1CC(=O)NC1=O
InChI: InChI=1S/C8H6N4O5/c13-6-4-11(8(14)10-6)9-3-5-1-2-7(17-5)12(15)16/h1-3H,4H2,(H,10,13,14)
Instrument: Q Exactive Plus
Instrument type: LC-ESI-QFT
Ms type: MS2
Ion mode: NEGATIVE
Ionization: ESI
Fragmentation mode: HCD
Collision energy: 15 % (nominal)
Resolution: 15000
Column name: XBridge C18 3.5um, 2.1x50mm, Waters
Retention time: 3.239 min
Base peak: 237.0266
Precursor m/z: 237.0265
Precursor type: [M-H]-
Precursor intensity: 17106369.99
m/z	relative intensity	assigned
77.0032	21	C5HO-
99.0199	37	C3H3N2O2-
108.0092	18	C5H2NO2-
120.0334	21	C6H4N2O-
124.0041	326	C5H2NO3-
133.0282	28	C6H3N3O-
147.02	36	C7H3N2O2-
152.0102	766	C5H2N3O3-
164.0228	21	C7H4N2O3-
194.0207	127	C7H4N3O4-
237.0266	999	C8H5N4O5-
