Mass spectrum: Hesperitin; LC-ESI-QFT; MS2; CE: 30%; R=17500; [M-H]-
Name: Hesperitin
Name: 5,7-dihydroxy-2-(3-hydroxy-4-methoxyphenyl)-3,4-dihydro-2H-1-benzopyran-4-one
Name: 5,7-dihydroxy-2-(3-hydroxy-4-methoxyphenyl)-2,3-dihydrochromen-4-one
Formula: C16H14O6
Exact mass: 302.0790382
SMILES: COC1=C(C=C(C=C1)C2CC(=O)C3=C(C=C(C=C3O2)O)O)O
InChI: InChI=1S/C16H14O6/c1-21-13-3-2-8(4-10(13)18)14-7-12(20)16-11(19)5-9(17)6-15(16)22-14/h2-6,14,17-19H,7H2,1H3
Instrument: Exploris 240 Orbitrap Thermo Scientific
Instrument type: LC-ESI-QFT
Ms type: MS2
Ion mode: NEGATIVE
Ionization: ESI
Fragmentation mode: HCD
Collision energy: 30 % (nominal)
Resolution: 17500
Column name: XBridge C18 3.5um, 2.1x50mm, Waters
Retention time: 6.311 min
Base peak: 301.0717
Precursor m/z: 301.0718
Precursor type: [M-H]-
m/z	relative intensity	assigned
83.0137	2	C4H3O2-
125.0244	53	C6H5O3-
134.0373	3	C8H6O2-
149.0611	11	C9H9O2-
151.0038	36	C7H3O4-
158.0379	2	C10H6O2-
164.0117	61	C8H4O4-
173.0608	9	C11H9O2-
174.0319	16	C10H6O3-
199.0401	21	C12H7O3-
200.0482	5	C12H8O3-
201.0193	16	C11H5O4-
215.0716	9	C13H11O3-
216.0429	3	C12H8O4-
227.0346	5	C13H7O4-
230.0587	3	C13H10O4-
233.0825	8	C13H13O4-
240.0439	5	C14H8O4-
242.0586	75	C14H10O4-
257.0819	66	C15H13O4-
258.0533	30	C14H10O5-
259.0613	2	C14H11O5-
283.0615	33	C16H11O5-
286.0484	186	C15H10O6-
301.0719	999	C16H13O6-
