Mass spectrum: 3-Hydroxycotinine; LC-ESI-QFT; MS2; CE: 45%; R=17500; [M+H]+
Name: 3-Hydroxycotinine
Name: 2-Pyrrolidinone, 3-hydroxy-1-methyl-5-(3-pyridinyl)-
Name: 3-hydroxy-1-methyl-5-pyridin-3-ylpyrrolidin-2-one
Formula: C10H12N2O2
Exact mass: 192.0898776
SMILES: CN1C(CC(C1=O)O)C2=CN=CC=C2
InChI: InChI=1S/C10H12N2O2/c1-12-8(5-9(13)10(12)14)7-3-2-4-11-6-7/h2-4,6,8-9,13H,5H2,1H3
Instrument: Exploris 240 Orbitrap Thermo Scientific
Instrument type: LC-ESI-QFT
Ms type: MS2
Ion mode: POSITIVE
Ionization: ESI
Fragmentation mode: HCD
Collision energy: 45 % (nominal)
Resolution: 17500
Column name: XBridge C18 3.5um, 2.1x50mm, Waters
Retention time: 0.962 min
Base peak: 193.0971
Precursor m/z: 193.0972
Precursor type: [M+H]+
m/z	relative intensity	assigned
58.0652	10	C3H8N+
80.0495	129	C5H6N+
86.0601	20	C4H8NO+
106.0653	14	C7H8N+
114.055	8	C5H8NO2+
118.0649	20	C8H8N+
123.0916	3	C7H11N2+
134.06	192	C8H8NO+
136.039	8	C7H6NO2+
136.0758	6	C8H10NO+
149.0707	30	C8H9N2O+
162.0552	6	C9H8NO2+
175.0866	6	C10H11N2O+
193.0972	999	C10H13N2O2+
