Mass spectrum: Quinine; LC-ESI-QFT; MS2; CE: 60%; R=17500; [M+H]+
Name: Quinine
Name: Cinchonan-9-ol, 6`-methoxy-, (8alpha,9R)-
Name: (5-ethenyl-1-azabicyclo[2.2.2]octan-2-yl)-(6-methoxyquinolin-4-yl)methanol
Formula: C20H24N2O2
Exact mass: 324.183778
SMILES: COC1=CC2=C(C=CN=C2C=C1)C(C3CC4CCN3CC4C=C)O
InChI: InChI=1S/C20H24N2O2/c1-3-13-12-22-9-7-14(13)10-19(22)20(23)16-6-8-21-18-5-4-15(24-2)11-17(16)18/h3-6,8,11,13-14,19-20,23H,1,7,9-10,12H2,2H3
Instrument: Exploris 240 Orbitrap Thermo Scientific
Instrument type: LC-ESI-QFT
Ms type: MS2
Ion mode: POSITIVE
Ionization: ESI
Fragmentation mode: HCD
Collision energy: 60 % (nominal)
Resolution: 17500
Column name: XBridge C18 3.5um, 2.1x50mm, Waters
Retention time: 4.008 min
Base peak: 325.1906
Precursor m/z: 325.1911
Precursor type: [M+H]+
m/z	relative intensity	assigned
53.0387	59	C4H5+
55.0542	114	C4H7+
56.0496	41	C3H6N+
65.0386	28	C5H5+
67.0542	187	C5H7+
68.0497	37	C4H6N+
70.0652	23	C4H8N+
79.0542	620	C6H7+
80.0494	88	C5H6N+
81.0699	999	C6H9+
82.0652	138	C5H8N+
84.0809	23	C5H10N+
91.0542	74	C7H7+
93.0699	50	C7H9+
94.0651	41	C6H8N+
95.0731	40	C6H9N+
95.0859	53	C7H11+
96.081	50	C6H10N+
105.0701	49	C8H9+
106.0653	46	C7H8N+
107.0731	33	C7H9N+
107.0858	30	C8H11+
108.0808	101	C7H10N+
110.0965	75	C7H12N+
120.081	27	C8H10N+
122.0965	48	C8H12N+
124.1126	51	C8H14N+
134.0967	120	C9H12N+
135.1041	20	C9H13N+
136.1126	55	C9H14N+
155.0733	32	C11H9N+
158.0597	18	C10H8NO+
159.0676	33	C10H9NO+
160.0757	475	C10H10NO+
162.0911	35	C10H12NO+
166.1226	75	C10H16NO+
167.0731	31	C12H9N+
169.0526	32	C11H7NO+
170.0597	33	C11H8NO+
172.0758	466	C11H10NO+
173.0838	168	C11H11NO+
174.0915	114	C11H12NO+
183.0681	58	C12H9NO+
184.0758	417	C12H10NO+
186.0913	305	C12H12NO+
188.0703	19	C11H10NO2+
189.0788	53	C11H11NO2+
196.0755	46	C13H10NO+
197.084	54	C13H11NO+
198.0917	203	C13H12NO+
202.0868	50	C12H12NO2+
210.0924	135	C14H12NO+
213.1026	36	C13H13N2O+
224.1069	69	C15H14NO+
226.1225	57	C15H16NO+
236.1072	52	C16H14NO+
251.1176	173	C16H15N2O+
253.1339	221	C16H17N2O+
264.1383	89	C18H18NO+
265.1346	55	C17H17N2O+
279.1493	76	C18H19N2O+
307.1804	333	C20H23N2O+
325.191	294	C20H25N2O2+
