Mass spectrum: Isavuconazole; LC-ESI-QFT; MS2; CE: 80%; R=15000; [M+H]+
Name: Isavuconazole
Name: 4-[2-[(2R,3R)-3-[2,5-bis(fluoranyl)phenyl]-3-oxidanyl-4-(1,2,4-triazol-1-yl)butan-2-yl]-1,3-thiazol-4-yl]benzenecarbonitrile
Name: 4-[2-[3-(2,5-difluorophenyl)-3-hydroxy-4-(1,2,4-triazol-1-yl)butan-2-yl]-1,3-thiazol-4-yl]benzonitrile
Formula: C22H17F2N5OS
Exact mass: 437.1121876
SMILES: CC(C1=NC(=CS1)C2=CC=C(C=C2)C#N)C(CN3C=NC=N3)(C4=C(C=CC(=C4)F)F)O
InChI: InChI=1S/C22H17F2N5OS/c1-14(21-28-20(10-31-21)16-4-2-15(9-25)3-5-16)22(30,11-29-13-26-12-27-29)18-8-17(23)6-7-19(18)24/h2-8,10,12-14,30H,11H2,1H3
Instrument: Exploris 240 Thermo Scientific
Instrument type: LC-ESI-QFT
Ms type: MS2
Ion mode: POSITIVE
Ionization: ESI
Fragmentation mode: HCD
Collision energy: 80 % (nominal)
Resolution: 15000
Column name: XBridge C18 3.5um, 2.1x50mm, Waters
Retention time: 10.216 min
Base peak: 438.1191
Precursor m/z: 438.1195
Precursor type: [M+H]+
m/z	relative intensity	assigned
51.0041	192	CHF2+
51.0229	133	C4H3+
54.0339	59	C3H4N+
57.0135	703	C3H2F+
62.0153	55	C5H2+
63.0229	498	C5H3+
65.0386	26	C5H5+
68.9794	59	C3HS+
70.04	349	C2H4N3+
75.0041	253	C3HF2+
75.0231	46	C6H3+
77.0197	119	C3H3F2+
77.0386	32	C6H5+
81.0135	290	C5H2F+
82.0398	137	C3H4N3+
83.0293	58	C5H4F+
89.0386	999	C7H5+
90.034	57	C6H4N+
95.0493	55	C6H7O+
96.0374	16	C6H5F+
101.0198	672	C5H3F2+
107.0292	349	C7H4F+
114.034	62	C8H4N+
115.0418	50	C8H5N+
116.0495	309	C8H6N+
159.0142	61	C9H5NS+
202.0778	538	C16H10+
203.0832	101	C6H13N5OS+
