Mass spectrum: Pyrimethamine; LC-ESI-QFT; MS2; CE: 75%; R=15000; [M+H]+
Name: Pyrimethamine
Name: 5-(4-chlorophenyl)-6-ethylpyrimidine-2,4-diamine
Formula: C12H13ClN4
Exact mass: 248.0828741
SMILES: CCC1=NC(N)=NC(N)=C1C1=CC=C(Cl)C=C1
InChI: InChI=1S/C12H13ClN4/c1-2-9-10(11(14)17-12(15)16-9)7-3-5-8(13)6-4-7/h3-6H,2H2,1H3,(H4,14,15,16,17)
Instrument: Q Exactive Plus
Instrument type: LC-ESI-QFT
Ms type: MS2
Ion mode: POSITIVE
Ionization: ESI
Fragmentation mode: HCD
Collision energy: 75 % (nominal)
Resolution: 15000
Column name: XBridge C18 3.5um, 2.1x50mm, Waters
Retention time: 5.158 min
Base peak: 249.0903
Precursor m/z: 249.0902
Precursor type: [M+H]+
Precursor intensity: 1238556926.84
m/z	relative intensity	assigned
56.0495	32	C3H6N+
115.0543	11	C9H7+
117.0573	36	C8H7N+
125.0154	37	C7H6Cl+
127.0543	11	C10H7+
128.0621	140	C10H8+
139.0061	30	C6H4ClN2+
142.0526	14	C9H6N2+
145.0649	44	C7H12ClN+
149.0157	16	C9H6Cl+
150.0106	20	C8H5ClN+
152.0262	68	C8H7ClN+
154.0652	45	C11H8N+
155.0603	40	C10H7N2+
155.073	61	C11H9N+
163.0309	153	C10H8Cl+
177.0214	999	C9H6ClN2+
190.0418	39	C11H9ClN+
196.0872	39	C12H10N3+
198.09	185	C11H10N4+
207.0683	39	C11H12ClN2+
213.1135	27	C12H13N4+
233.0588	978	C11H10ClN4+
249.0901	193	C12H14ClN4+
