Mass spectrum: Flurochloridone; LC-ESI-QFT; MS2; CE: 15%; R=15000; [M+H]+
Name: Flurochloridone
Name: 3-chloro-4-(chloromethyl)-1-[3-(trifluoromethyl)phenyl]pyrrolidin-2-one
Formula: C12H10Cl2F3NO
Exact mass: 311.009154
SMILES: C1C(C(C(=O)N1C2=CC=CC(=C2)C(F)(F)F)Cl)CCl
InChI: InChI=1S/C12H10Cl2F3NO/c13-5-7-6-18(11(19)10(7)14)9-3-1-2-8(4-9)12(15,16)17/h1-4,7,10H,5-6H2
Instrument: Exploris 240 Thermo Scientific
Instrument type: LC-ESI-QFT
Ms type: MS2
Ion mode: POSITIVE
Ionization: ESI
Fragmentation mode: HCD
Collision energy: 15 % (nominal)
Resolution: 15000
Column name: XBridge C18 3.5um, 2.1x50mm, Waters
Retention time: 9.717 min
Base peak: 312.0161
Precursor m/z: 312.0164
Precursor type: [M+H]+
m/z	relative intensity	assigned
312.0161	999	C12H11Cl2F3NO+
