Mass spectrum: Flufenacet; LC-ESI-QFT; MS2; CE: 150%; R=15000; [M+H]+
Name: Flufenacet
Name: N-(4-fluorophenyl)-N-propan-2-yl-2-[[5-(trifluoromethyl)-1,3,4-thiadiazol-2-yl]oxy]acetamide
Formula: C14H13F4N3O2S
Exact mass: 363.0664605
SMILES: CC(C)N(C(=O)COC1=NN=C(S1)C(F)(F)F)C1=CC=C(F)C=C1
InChI: InChI=1S/C14H13F4N3O2S/c1-8(2)21(10-5-3-9(15)4-6-10)11(22)7-23-13-20-19-12(24-13)14(16,17)18/h3-6,8H,7H2,1-2H3
Instrument: Q Exactive Plus
Instrument type: LC-ESI-QFT
Ms type: MS2
Ion mode: POSITIVE
Ionization: ESI
Fragmentation mode: HCD
Collision energy: 150 % (nominal)
Resolution: 15000
Column name: XBridge C18 3.5um, 2.1x50mm, Waters
Retention time: 10.445 min
Base peak: 364.0739
Precursor m/z: 364.0737
Precursor type: [M+H]+
Precursor intensity: 508954947.53
m/z	relative intensity	assigned
50.0152	158	C4H2+
51.023	538	C4H3+
53.0021	52	C3HO+
53.0386	176	C4H5+
57.0135	398	C3H2F+
59.0291	72	C3H4F+
62.015	27	C5H2+
63.0229	128	C5H3+
65.0385	24	C5H5+
70.0214	56	C4H3F+
71.0291	38	C4H4F+
74.0151	258	C6H2+
75.0229	999	C6H3+
76.0182	45	C5H2N+
77.0385	223	C6H5+
78.0337	36	C5H4N+
81.0135	62	C5H2F+
83.0292	694	C5H4F+
84.037	35	F2H4N3+
85.0324	12	C4H4FN+
89.0387	29	C7H5+
95.0292	137	C6H4F+
95.0492	698	C6H7O+
96.037	355	C6H5F+
97.0448	248	C6H6F+
104.0494	47	C7H6N+
105.0448	186	C6H5N2+
107.0292	201	C7H4F+
109.0449	237	C7H6F+
113.0397	358	C6H6FO+
114.035	26	C5H5FNO+
123.0353	271	C6H4FN2+
124.0558	66	C7H7FN+
135.0477	20	C8H6FN+
136.0555	40	C8H7FN+
