Mass spectrum: 6-O-Desmethyl-mycophenolic acid; LC-ESI-QFT; MS2; CE: 150%; R=17500; [M+H]+
Name: 6-O-Desmethyl-mycophenolic acid
Name: 6-(4,6-dihydroxy-7-methyl-3-oxo-1H-2-benzofuran-5-yl)-4-methylhex-4-enoic acid
Formula: C16H18O6
Exact mass: 306.1103383
SMILES: CC1=C2COC(=O)C2=C(C(=C1O)CC=C(C)CCC(=O)O)O
InChI: InChI=1S/C16H18O6/c1-8(4-6-12(17)18)3-5-10-14(19)9(2)11-7-22-16(21)13(11)15(10)20/h3,19-20H,4-7H2,1-2H3,(H,17,18)
Instrument: Exploris 240 Orbitrap Thermo Scientific
Instrument type: LC-ESI-QFT
Ms type: MS2
Ion mode: POSITIVE
Ionization: ESI
Fragmentation mode: HCD
Collision energy: 150 % (nominal)
Resolution: 17500
Column name: XBridge C18 3.5um, 2.1x50mm, Waters
Retention time: 6.296 min
Base peak: 307.1173
Precursor m/z: 307.1176
Precursor type: [M+H]+
m/z	relative intensity	assigned
51.0229	140	C4H3+
53.0022	78	C3HO+
53.0386	272	C4H5+
55.0178	184	C3H3O+
55.0542	27	C4H7+
63.0229	49	C5H3+
65.0385	694	C5H5+
66.0464	91	C5H6+
67.0179	32	C4H3O+
67.0543	39	C5H7+
69.0338	15	C4H5O+
77.0386	681	C6H5+
78.0464	21	C6H6+
79.0542	999	C6H7+
80.0621	82	C6H8+
81.0335	36	C5H5O+
81.0701	57	C6H9+
83.0128	228	C4H3O2+
89.0385	127	C7H5+
90.0464	77	C7H6+
91.0542	403	C7H7+
93.0334	26	C6H5O+
94.0411	83	C6H6O+
95.0492	263	C6H7O+
107.0491	506	C7H7O+
108.0571	42	C7H8O+
109.0652	38	C7H9O+
115.0543	35	C9H7+
119.0493	39	C8H7O+
128.0619	26	C10H8+
135.0439	229	C8H7O2+
136.052	174	C8H8O2+
145.0286	41	C9H5O2+
163.0385	117	C9H7O3+
