Mass spectrum: Fluralaner; LC-ESI-QFT; MS2; CE: 45%; R=17500; [M+H]+
Name: Fluralaner
Name: 4-[5-(3,5-dichlorophenyl)-5-(trifluoromethyl)-4H-1,2-oxazol-3-yl]-2-methyl-N-[2-oxo-2-(2,2,2-trifluoroethylamino)ethyl]benzamide
Formula: C22H17Cl2F6N3O3
Exact mass: 555.055116084
SMILES: CC1=C(C=CC(=C1)C2=NOC(C2)(C3=CC(=CC(=C3)Cl)Cl)C(F)(F)F)C(=O)NCC(=O)NCC(F)(F)F
InChI: InChI=1S/C22H17Cl2F6N3O3/c1-11-4-12(2-3-16(11)19(35)31-9-18(34)32-10-21(25,26)27)17-8-20(36-33-17,22(28,29)30)13-5-14(23)7-15(24)6-13/h2-7H,8-10H2,1H3,(H,31,35)(H,32,34)
Instrument: Exploris 240 Orbitrap Thermo Scientific
Instrument type: LC-ESI-QFT
Ms type: MS2
Ion mode: POSITIVE
Ionization: ESI
Fragmentation mode: HCD
Collision energy: 45 % (nominal)
Resolution: 17500
Column name: XBridge C18 3.5um, 2.1x50mm, Waters
Retention time: 13.351 min
Base peak: 556.0624
Precursor m/z: 556.0624
Precursor type: [M+H]+
m/z	relative intensity	assigned
103.0541	13	C8H7+
130.065	28	CH9F5N+
132.0444	31	C8H6NO+
143.0493	9	C10H7O+
160.0392	490	CH7F5NO2+
320.0437	3	C18H5F3N3+
372.0166	68	C17H11Cl2F3NO+
400.0115	999	C18H11Cl2F3NO2+
