Mass spectrum: 5-methyl-1-phenyl-2(1H)-Pyridone; LC-ESI-QFT; MS2; CE: 90%; R=15000; [M+H]+
Name: 5-methyl-1-phenyl-2(1H)-Pyridone
Name: Pirfenidone
Name: 5-methyl-1-phenylpyridin-2-one
Formula: C12H11NO
Exact mass: 185.084064
SMILES: CC1=CN(C(=O)C=C1)C2=CC=CC=C2
InChI: InChI=1S/C12H11NO/c1-10-7-8-12(14)13(9-10)11-5-3-2-4-6-11/h2-9H,1H3
Instrument: Exploris 240 Thermo Scientific
Instrument type: LC-ESI-QFT
Ms type: MS2
Ion mode: POSITIVE
Ionization: ESI
Fragmentation mode: HCD
Collision energy: 90 % (nominal)
Resolution: 15000
Column name: XBridge C18 3.5um, 2.1x50mm, Waters
Retention time: 5.057 min
Base peak: 186.0908
Precursor m/z: 186.0913
Precursor type: [M+H]+
m/z	relative intensity	assigned
51.0229	51	C4H3+
53.0385	57	C4H5+
65.0385	848	C5H5+
77.0385	334	C6H5+
80.0496	27	C5H6N+
92.0494	755	C6H6N+
95.0491	169	C6H7O+
104.0495	76	C7H6N+
110.0599	999	C6H8NO+
115.0541	62	C9H7+
128.0619	39	C10H8+
141.0697	75	C11H9+
143.0729	173	C10H9N+
153.0574	37	C11H7N+
157.0884	28	C11H11N+
158.0961	192	C11H12N+
168.0808	13	C12H10N+
186.0909	400	C12H12NO+
