Mass spectrum: Phosalone; LC-ESI-QFT; MS2; CE: 45%; R=15000; [M+H]+
Name: Phosalone
Name: 6-chloro-3-(diethoxyphosphinothioylsulfanylmethyl)-1,3-benzoxazol-2-one
Formula: C12H15ClNO4PS2
Exact mass: 366.9868643
SMILES: CCOP(=S)(OCC)SCN1C2=C(C=C(C=C2)Cl)OC1=O
InChI: InChI=1S/C12H15ClNO4PS2/c1-3-16-19(20,17-4-2)21-8-14-10-6-5-9(13)7-11(10)18-12(14)15/h5-7H,3-4,8H2,1-2H3
Instrument: Q Exactive Plus
Instrument type: LC-ESI-QFT
Ms type: MS2
Ion mode: POSITIVE
Ionization: ESI
Fragmentation mode: HCD
Collision energy: 45 % (nominal)
Resolution: 15000
Column name: XBridge C18 3.5um, 2.1x50mm, Waters
Retention time: 12.216 min
Base peak: 367.9946
Precursor m/z: 367.9941
Precursor type: [M+H]+
Precursor intensity: 198975553.66
m/z	relative intensity	assigned
51.0229	35	C4H3+
75.0228	15	C6H3+
78.0339	14	C5H4N+
86.9997	53	C4H4Cl+
93.0336	23	C6H5O+
102.0339	16	C7H4N+
110.9996	23	C6H4Cl+
111.0439	21	C6H7O2+
114.9614	398	H4O3PS+
120.0444	58	C7H6NO+
129.0102	277	C6H6ClO+
138.0106	787	C7H5ClN+
139.0058	390	C3H7O4S+
142.9383	16	CH4O2PS2+
170.0002	44	C6H5NO3P+
182.0003	999	C8H5ClNO2+
