Mass spectrum: Bifenazate; LC-ESI-QFT; MS2; CE: 75%; R=15000; [M+H]+
Name: Bifenazate
Name: propan-2-yl N-(2-methoxy-5-phenylanilino)carbamate
Formula: C17H20N2O3
Exact mass: 300.1473925
SMILES: CC(C)OC(=O)NNC1=C(C=CC(=C1)C2=CC=CC=C2)OC
InChI: InChI=1S/C17H20N2O3/c1-12(2)22-17(20)19-18-15-11-14(9-10-16(15)21-3)13-7-5-4-6-8-13/h4-12,18H,1-3H3,(H,19,20)
Instrument: Exploris 240 Thermo Scientific
Instrument type: LC-ESI-QFT
Ms type: MS2
Ion mode: POSITIVE
Ionization: ESI
Fragmentation mode: HCD
Collision energy: 75 % (nominal)
Resolution: 15000
Column name: XBridge C18 3.5um, 2.1x50mm, Waters
Retention time: 9.760 min
Base peak: 198.091
Precursor m/z: 301.1547
Precursor type: [M+H]+
m/z	relative intensity	assigned
65.0385	65	C5H5+
92.0494	139	C6H6N+
93.0573	158	C6H7N+
110.0603	30	C6H8NO+
115.054	71	C9H7+
128.0619	264	C10H8+
129.0699	41	C10H9+
141.0697	362	C11H9+
143.0855	94	C11H11+
151.0537	77	C12H7+
152.0619	988	C12H8+
153.0697	999	C12H9+
154.0648	30	C11H8N+
155.0733	61	C11H9N+
156.0806	316	C11H10N+
167.0727	505	C12H9N+
168.0806	240	C12H10N+
169.0651	84	C12H9O+
169.0886	254	C12H11N+
170.0962	538	C12H12N+
179.0602	57	C12H7N2+
184.0754	787	C12H10NO+
