Mass spectrum: Zafirlukast; LC-ESI-QFT; MS2; CE: 45%; R=15000; [M-H]-
Name: Zafirlukast
Name: cyclopentyl N-[3-[[2-methoxy-4-[(2-methylphenyl)sulfonylcarbamoyl]phenyl]methyl]-1-methylindol-5-yl]carbamate
Formula: C31H33N3O6S
Exact mass: 575.2090068
SMILES: COC1=C(CC2=CN(C)C3=C2C=C(NC(=O)OC2CCCC2)C=C3)C=CC(=C1)C(=O)NS(=O)(=O)C1=CC=CC=C1C
InChI: InChI=1S/C31H33N3O6S/c1-20-8-4-7-11-29(20)41(37,38)33-30(35)22-13-12-21(28(17-22)39-3)16-23-19-34(2)27-15-14-24(18-26(23)27)32-31(36)40-25-9-5-6-10-25/h4,7-8,11-15,17-19,25H,5-6,9-10,16H2,1-3H3,(H,32,36)(H,33,35)
Instrument: Q Exactive Plus
Instrument type: LC-ESI-QFT
Ms type: MS2
Ion mode: NEGATIVE
Ionization: ESI
Fragmentation mode: HCD
Collision energy: 45 % (nominal)
Resolution: 15000
Column name: XBridge C18 3.5um, 2.1x50mm, Waters
Retention time: 12.471 min
Base peak: 574.2016
Precursor m/z: 574.2017
Precursor type: [M-H]-
Precursor intensity: 37802295.28
m/z	relative intensity	assigned
63.9624	265	O2S-
79.9811	21	H2NO2S-
83.0503	12	C5H7O-
107.0503	657	C7H7O-
155.0172	57	C7H7O2S-
170.0281	216	C7H8NO2S-
171.012	15	C7H7O3S-
235.0878	22	C15H11N2O-
260.0825	15	C16H10N3O-
279.0774	18	C16H11N2O3-
292.1092	170	C17H14N3O2-
339.1498	48	C23H19N2O-
368.1408	25	C17H24N2O5S-
414.092	71	C23H16N3O3S-
432.1024	999	C23H18N3O4S-
440.0726	10	C24H14N3O4S-
444.1386	118	C25H22N3O3S-
447.1257	122	C24H21N3O4S-
458.0818	166	C24H16N3O5S-
462.1495	542	C25H24N3O4S-
488.1286	177	C26H22N3O5S-
