Mass spectrum: Chlorpyrifos; LC-ESI-QFT; MS2; CE: 120%; R=15000; [M+H]+
Name: Chlorpyrifos
Name: diethoxy-sulfanylidene-(3,5,6-trichloropyridin-2-yl)oxy-lambda5-phosphane
Formula: C9H11Cl3NO3PS
Exact mass: 348.9262839
SMILES: CCOP(=S)(OCC)OC1=NC(Cl)=C(Cl)C=C1Cl
InChI: InChI=1S/C9H11Cl3NO3PS/c1-3-14-17(18,15-4-2)16-9-7(11)5-6(10)8(12)13-9/h5H,3-4H2,1-2H3
Instrument: Q Exactive Plus
Instrument type: LC-ESI-QFT
Ms type: MS2
Ion mode: POSITIVE
Ionization: ESI
Fragmentation mode: HCD
Collision energy: 120 % (nominal)
Resolution: 15000
Column name: XBridge C18 3.5um, 2.1x50mm, Waters
Retention time: 14.392 min
Base peak: 349.9338
Precursor m/z: 349.9336
Precursor type: [M+H]+
Precursor intensity: 86352622.98
m/z	relative intensity	assigned
61.9792	46	CHClN+
64.9787	566	H2O2P+
78.9401	70	OPS+
82.9451	13	CHCl2+
83.9762	28	C4HCl+
96.9508	48	H2O2PS+
106.945	999	C3HCl2+
108.9714	90	C5ClN+
114.9613	781	H4O3PS+
118.945	93	C4HCl2+
133.9558	48	C4H2Cl2N+
161.9507	55	C5H2Cl2NO+
197.9274	18	C5H3Cl3NO+
