Mass spectrum: 2-Benzyl-2-(dimethylamino)-1-[4-(morpholin-4-yl)phenyl]butan-1-one; LC-ESI-QFT; MS2; CE: 180%; R=15000; [M+H]+
Name: 2-Benzyl-2-(dimethylamino)-1-[4-(morpholin-4-yl)phenyl]butan-1-one
Name: 2-Benzyl-2-dimethylamino-1-(4-morpholinophenyl)-1-butanone
Name: 2-benzyl-2-(dimethylamino)-1-(4-morpholin-4-ylphenyl)butan-1-one
Formula: C23H30N2O2
Exact mass: 366.2307282
SMILES: CCC(CC1=CC=CC=C1)(N(C)C)C(=O)C1=CC=C(C=C1)N1CCOCC1
InChI: InChI=1S/C23H30N2O2/c1-4-23(24(2)3,18-19-8-6-5-7-9-19)22(26)20-10-12-21(13-11-20)25-14-16-27-17-15-25/h5-13H,4,14-18H2,1-3H3
Instrument: Exploris 240 Thermo Scientific
Instrument type: LC-ESI-QFT
Ms type: MS2
Ion mode: POSITIVE
Ionization: ESI
Fragmentation mode: HCD
Collision energy: 180 % (nominal)
Resolution: 15000
Column name: XBridge C18 3.5um, 2.1x50mm, Waters
Retention time: 5.169 min
Base peak: 367.2376
Precursor m/z: 367.238
Precursor type: [M+H]+
m/z	relative intensity	assigned
50.015	107	C4H2+
51.0229	559	C4H3+
53.0386	143	C4H5+
56.0495	61	C3H6N+
63.0229	138	C5H3+
65.0385	762	C5H5+
70.0652	82	C4H8N+
77.0385	277	C6H5+
78.034	72	C5H4N+
78.0464	169	C6H6+
79.0542	95	C6H7+
89.0384	249	C7H5+
90.0464	175	C7H6+
91.0541	999	C7H7+
95.0491	536	C6H7O+
96.0441	120	C5H6NO+
102.0466	53	C8H6+
103.0541	160	C8H7+
104.0493	107	C7H6N+
105.0446	261	C6H5N2+
105.0698	19	C8H9+
115.0542	348	C9H7+
117.0573	214	C8H7N+
118.065	86	C8H8N+
128.0625	56	C10H8+
152.0621	140	C12H8+
165.0706	64	C13H9+
177.0698	79	C14H9+
178.0777	380	C14H10+
202.0776	548	C16H10+
203.0824	102	C11H11N2O2+
