Mass spectrum: Hexaflumuron; LC-ESI-QFT; MS2; CE: 30%; R=15000; [M-H]-
Name: Hexaflumuron
Name: N-[[3,5-dichloro-4-(1,1,2,2-tetrafluoroethoxy)phenyl]carbamoyl]-2,6-difluorobenzamide
Formula: C16H8Cl2F6N2O3
Exact mass: 459.9816168
SMILES: C1=CC(=C(C(=C1)F)C(=O)NC(=O)NC2=CC(=C(C(=C2)Cl)OC(C(F)F)(F)F)Cl)F
InChI: InChI=1S/C16H8Cl2F6N2O3/c17-7-4-6(5-8(18)12(7)29-16(23,24)14(21)22)25-15(28)26-13(27)11-9(19)2-1-3-10(11)20/h1-5,14H,(H2,25,26,27,28)
Instrument: Q Exactive Plus
Instrument type: LC-ESI-QFT
Ms type: MS2
Ion mode: NEGATIVE
Ionization: ESI
Fragmentation mode: HCD
Collision energy: 30 % (nominal)
Resolution: 15000
Column name: XBridge C18 3.5um, 2.1x50mm, Waters
Retention time: 13.319 min
Base peak: 458.9744
Precursor m/z: 458.9743
Precursor type: [M-H]-
Precursor intensity: 25047868.02
m/z	relative intensity	assigned
96.9907	85	C2F3O-
113.0209	56	C6H3F2-
116.997	56	C2HF4O-
136.0203	46	C7H3FNO-
156.0267	49	C7H4F2NO-
174.9596	691	C6H3Cl2NO-
185.9522	31	C7H2Cl2NO-
199.9547	28	C7H2Cl2N2O-
255.9549	144	C8H3Cl2F3NO-
258.0001	40	C13H4ClFN2O-
275.961	999	C8H4Cl2F4NO-
284.987	66	C6H4ClF6N2O2-
300.9563	168	C9H3Cl2F4N2O-
301.9902	247	C14H4ClFN2O3-
402.9924	44	C16H5ClF5N2O3-
438.9683	213	C16H6Cl2F5N2O3-
