Mass spectrum: Tepraloxydim; LC-ESI-QFT; MS2; CE: 45%; R=15000; [M+H]+
Name: Tepraloxydim
Name: 2-Cyclohexen-1-one, 2-(1-((((2E)-3-chloro-2-propenyl)oxy)imino)propyl)-3-hydroxy-5-(tetrahydro-2H-pyran-4-yl)-
Name: 2-[N-[(E)-3-chloroprop-2-enoxy]-C-ethylcarbonimidoyl]-3-hydroxy-5-(oxan-4-yl)cyclohex-2-en-1-one
Formula: C17H24ClNO4
Exact mass: 341.1393859
SMILES: CCC(=C1C(=O)CC(CC1=O)C2CCOCC2)NOCC=CCl
InChI: InChI=1S/C17H24ClNO4/c1-2-14(19-23-7-3-6-18)17-15(20)10-13(11-16(17)21)12-4-8-22-9-5-12/h3,6,12-13,19H,2,4-5,7-11H2,1H3
Instrument: Q Exactive Plus
Instrument type: LC-ESI-QFT
Ms type: MS2
Ion mode: POSITIVE
Ionization: ESI
Fragmentation mode: HCD
Collision energy: 45 % (nominal)
Resolution: 15000
Column name: XBridge C18 3.5um, 2.1x50mm, Waters
Retention time: 9.984 min
Base peak: 342.147
Precursor m/z: 342.1467
Precursor type: [M+H]+
Precursor intensity: 337553619.09
m/z	relative intensity	assigned
53.0386	10	C4H5+
55.0178	20	C3H3O+
55.0543	41	C4H7+
56.0495	20	C3H6N+
57.0698	10	C4H9+
58.0651	18	C3H8N+
67.0542	85	C5H7+
69.0699	30	C5H9+
70.0651	32	C4H8N+
72.0443	27	C3H6NO+
72.0807	16	C4H10N+
74.9996	101	C3H4Cl+
79.0542	92	C6H7+
81.0333	14	C5H5O+
81.0699	64	C6H9+
82.0652	31	C5H8N+
83.0491	224	C5H7O+
84.0444	14	C4H6NO+
84.0807	13	C5H10N+
85.0648	14	C5H9O+
91.0542	127	C7H7+
93.0699	227	C7H9+
94.0652	69	C6H8N+
95.0492	76	C6H7O+
95.0856	49	C7H11+
96.0444	293	C5H6NO+
96.0808	22	C6H10N+
97.0647	25	C6H9O+
98.0601	377	C5H8NO+
103.0543	23	C8H7+
105.07	95	C8H9+
107.0492	30	C7H7O+
107.0857	75	C8H11+
108.0808	85	C7H10N+
109.0649	71	C7H9O+
110.0601	196	C6H8NO+
111.044	46	C6H7O2+
111.0681	32	C6H9NO+
111.0804	16	C7H11O+
112.076	11	C6H10NO+
113.0835	45	C6H11NO+
114.0912	24	C6H12NO+
117.0698	62	C9H9+
119.0855	83	C9H11+
120.081	27	C8H10N+
121.0648	130	C8H9O+
122.06	62	C7H8NO+
122.0965	10	C8H12N+
124.0395	29	C6H6NO2+
124.0759	25	C7H10NO+
126.055	25	C6H8NO2+
129.0697	31	C10H9+
131.0857	53	C10H11+
132.0809	27	C9H10N+
133.0648	35	C9H9O+
133.1012	39	C10H13+
135.0804	47	C9H11O+
136.0758	222	C8H10NO+
137.0597	45	C8H9O2+
137.0836	20	C8H11NO+
138.0551	38	C7H8NO2+
138.0914	189	C8H12NO+
139.0629	40	C7H9NO2+
139.0754	31	C8H11O2+
140.0702	29	C7H10NO2+
142.05	38	C6H8NO3+
145.0645	19	C10H9O+
145.1008	42	C11H13+
146.0599	15	C9H8NO+
146.0964	21	C10H12N+
147.0438	18	C9H7O2+
147.0806	34	C10H11O+
148.0757	65	C9H10NO+
149.0599	91	C9H9O2+
150.0917	30	C9H12NO+
152.0708	21	C8H10NO2+
158.0963	17	C11H12N+
159.1169	25	C12H15+
160.112	33	C11H14N+
161.0598	20	C10H9O2+
161.0959	40	C11H13O+
162.0912	25	C10H12NO+
164.0706	251	C9H10NO2+
165.0911	20	C10H13O2+
166.0862	999	C9H12NO2+
167.0941	19	C9H13NO2+
176.0702	13	C10H10NO2+
176.1067	24	C11H14NO+
178.1231	18	C11H16NO+
180.1383	15	C11H18NO+
188.1064	26	C12H14NO+
204.1381	45	C13H18NO+
205.1229	25	C10H20ClNO+
208.1332	35	C12H18NO2+
222.1488	107	C13H20NO2+
234.1487	45	C14H20NO2+
250.1439	75	C14H20NO3+
