Mass spectrum: Triclopyr; LC-ESI-QFT; MS2; CE: 60%; R=15000; [M+H]+
Name: Triclopyr
Name: 2-(3,5,6-trichloropyridin-2-yl)oxyacetic acid
Formula: C7H4Cl3NO3
Exact mass: 254.925676
SMILES: OC(=O)COC1=C(Cl)C=C(Cl)C(Cl)=N1
InChI: InChI=1S/C7H4Cl3NO3/c8-3-1-4(9)7(11-6(3)10)14-2-5(12)13/h1H,2H2,(H,12,13)
Instrument: Q Exactive Plus
Instrument type: LC-ESI-QFT
Ms type: MS2
Ion mode: POSITIVE
Ionization: ESI
Fragmentation mode: HCD
Collision energy: 60 % (nominal)
Resolution: 15000
Column name: XBridge C18 3.5um, 2.1x50mm, Waters
Retention time: 9.064 min
Base peak: 164.9845
Precursor m/z: 255.933
Precursor type: [M+H]+
Precursor intensity: 4419539.74
m/z	relative intensity	assigned
62.9632	150	CClO+
106.945	40	C3HCl2+
109.9793	58	C5HClN+
127.9897	15	C5H3ClNO+
133.9558	36	C4H2Cl2N+
145.956	92	C5H2Cl2N+
146.0006	40	C5H5ClNO2+
163.9663	999	C5H4Cl2NO+
179.9168	105	C5HCl3N+
179.9612	112	C5H4Cl2NO2+
181.9325	305	C5H3Cl3N+
197.9274	593	C5H3Cl3NO+
209.9273	74	C6H3Cl3NO+
