Mass spectrum: Dicamba; LC-ESI-QFT; MS2; CE: 150%; R=15000; [M+H]+
Name: Dicamba
Name: 3,6-dichloro-2-methoxybenzoic acid
Formula: C8H6Cl2O3
Exact mass: 219.9693994
SMILES: COC1=C(Cl)C=CC(Cl)=C1C(O)=O
InChI: InChI=1S/C8H6Cl2O3/c1-13-7-5(10)3-2-4(9)6(7)8(11)12/h2-3H,1H3,(H,11,12)
Instrument: Q Exactive Plus
Instrument type: LC-ESI-QFT
Ms type: MS2
Ion mode: POSITIVE
Ionization: ESI
Fragmentation mode: HCD
Collision energy: 150 % (nominal)
Resolution: 15000
Column name: XBridge C18 3.5um, 2.1x50mm, Waters
Retention time: 6.184 min
Base peak: 164.9846
Precursor m/z: 220.9767
Precursor type: [M+H]+
Precursor intensity: 2073491.22
m/z	relative intensity	assigned
61.0073	37	C5H+
62.0151	178	C5H2+
72.984	288	C3H2Cl+
74.0151	165	C6H2+
90.0101	268	C6H2O+
96.984	999	C5H2Cl+
108.9842	44	C6H2Cl+
124.9788	84	C6H2ClO+
