Mass spectrum: 1,3,7-Trimethyluric acid; LC-ESI-QFT; MS2; CE: 75%; R=17500; [M-H]-
Name: 1,3,7-Trimethyluric acid
Name: 1,3,7-trimethyl-9H-purine-2,6,8-trione
Formula: C8H10N4O3
Exact mass: 210.0752902
SMILES: CN1C2=C(NC1=O)N(C(=O)N(C2=O)C)C
InChI: InChI=1S/C8H10N4O3/c1-10-4-5(9-7(10)14)11(2)8(15)12(3)6(4)13/h1-3H3,(H,9,14)
Instrument: Exploris 240 Orbitrap Thermo Scientific
Instrument type: LC-ESI-QFT
Ms type: MS2
Ion mode: NEGATIVE
Ionization: ESI
Fragmentation mode: HCD
Collision energy: 75 % (nominal)
Resolution: 17500
Column name: XBridge C18 3.5um, 2.1x50mm, Waters
Retention time: 2.613 min
Base peak: 209.0679
Precursor m/z: 209.068
Precursor type: [M-H]-
m/z	relative intensity	assigned
80.0016	22	C3N2O-
94.0048	31	C3N3O-
121.9997	28	C4N3O2-
124.0516	305	C5H6N3O-
137.0231	999	C5H3N3O2-
152.0467	17	C6H6N3O2-
165.0421	13	C6H5N4O2-
179.021	116	C6H3N4O3-
193.0366	26	C7H5N4O3-
194.0445	352	C7H6N4O3-
209.0682	49	C8H9N4O3-
