Mass spectrum: Montelukast; LC-ESI-QFT; MS2; CE: 60%; R=15000; [M+H]+
Name: Montelukast
Name: 2-[1-[[1-[3-[2-(7-chloroquinolin-2-yl)ethenyl]phenyl]-3-[2-(2-hydroxypropan-2-yl)phenyl]propyl]sulfanylmethyl]cyclopropyl]acetic acid
Formula: C35H36ClNO3S
Exact mass: 585.2104427
SMILES: CC(C)(C1=CC=CC=C1CCC(C2=CC=CC(=C2)C=CC3=NC4=C(C=CC(=C4)Cl)C=C3)SCC5(CC5)CC(=O)O)O
InChI: InChI=1S/C35H36ClNO3S/c1-34(2,40)30-9-4-3-7-25(30)13-17-32(41-23-35(18-19-35)22-33(38)39)27-8-5-6-24(20-27)10-15-29-16-12-26-11-14-28(36)21-31(26)37-29/h3-12,14-16,20-21,32,40H,13,17-19,22-23H2,1-2H3,(H,38,39)
Instrument: Exploris 240 Thermo Scientific
Instrument type: LC-ESI-QFT
Ms type: MS2
Ion mode: POSITIVE
Ionization: ESI
Fragmentation mode: HCD
Collision energy: 60 % (nominal)
Resolution: 15000
Column name: XBridge C18 3.5um, 2.1x50mm, Waters
Retention time: 15.027 min
Base peak: 586.2179
Precursor m/z: 586.2177
Precursor type: [M+H]+
m/z	relative intensity	assigned
65.0386	123	C5H5+
75.0229	20	C6H3+
79.0543	28	C6H7+
89.0385	35	C7H5+
91.0542	999	C7H7+
99.0229	22	C8H3+
103.054	50	C8H7+
105.0698	75	C8H9+
115.0542	377	C9H7+
116.0619	112	C9H8+
127.0418	193	C9H5N+
127.0543	17	C10H7+
128.0496	33	C9H6N+
128.0618	235	C10H8+
129.0699	46	C10H9+
140.0493	36	C10H6N+
141.0571	30	C10H7N+
141.0699	101	C11H9+
142.0778	26	C11H10+
145.0647	18	C10H9O+
162.0105	185	C9H5ClN+
177.0342	40	C10H8ClN+
180.0209	57	C9H7ClNO+
189.0701	14	C15H9+
201.0341	16	C12H8ClN+
202.0778	207	C16H10+
203.0838	57	C10H16ClO2+
216.0809	69	C16H10N+
227.0722	49	C17H9N+
228.0801	68	C17H10N+
229.0882	39	C11H17O3S+
240.0804	129	C18H10N+
241.0885	574	C18H11N+
242.0964	102	C12H18O3S+
251.0499	61	C16H10ClN+
275.0496	284	C18H10ClN+
276.0576	115	C18H11ClN+
