Mass spectrum: Sulfentrazone; LC-ESI-QFT; MS2; CE: 30%; R=15000; [M+H]+
Name: Sulfentrazone
Name: N-[2,4-dichloro-5-[4-(difluoromethyl)-3-methyl-5-oxo-1,2,4-triazol-1-yl]phenyl]methanesulfonamide
Formula: C11H10Cl2F2N4O3S
Exact mass: 385.981873
SMILES: CC1=NN(C(=O)N1C(F)F)C1=CC(NS(C)(=O)=O)=C(Cl)C=C1Cl
InChI: InChI=1S/C11H10Cl2F2N4O3S/c1-5-16-19(11(20)18(5)10(14)15)9-4-8(17-23(2,21)22)6(12)3-7(9)13/h3-4,10,17H,1-2H3
Instrument: Q Exactive Plus
Instrument type: LC-ESI-QFT
Ms type: MS2
Ion mode: POSITIVE
Ionization: ESI
Fragmentation mode: HCD
Collision energy: 30 % (nominal)
Resolution: 15000
Column name: XBridge C18 3.5um, 2.1x50mm, Waters
Retention time: 6.517 min
Base peak: 386.9893
Precursor m/z: 386.9891
Precursor type: [M+H]+
Precursor intensity: 79056822.8
m/z	relative intensity	assigned
92.0306	14	C3H4F2N+
178.0165	61	C8H5ClN3+
198.9461	31	C7HCl2N2O+
213.9932	44	C6F2N4O3+
245.9631	37	C8H3Cl2FN3O+
246.9708	10	C8H4Cl2FN3O+
271.019	83	C7H11ClFN3O3S+
273.0347	139	C10H8ClF2N4O+
279.9848	82	C6H11Cl2FN2O3S+
289.0296	136	C10H8ClF2N4O2+
306.9957	999	C10H7Cl2F2N4O+
308.0035	445	C10H8Cl2F2N4O+
325.0065	54	C10H9Cl2F2N4O2+
336.9919	65	C10H11Cl2N4O3S+
386.9891	539	C11H11Cl2F2N4O3S+
