Mass spectrum: N,N-Diethyl-p-phenylenediamine; LC-ESI-QFT; MS2; CE: 45%; R=15000; [M+H]+
Name: N,N-Diethyl-p-phenylenediamine
Name: 4-N,4-N-diethylbenzene-1,4-diamine
Formula: C10H16N2
Exact mass: 164.1313485
SMILES: CCN(CC)C1=CC=C(C=C1)N
InChI: InChI=1S/C10H16N2/c1-3-12(4-2)10-7-5-9(11)6-8-10/h5-8H,3-4,11H2,1-2H3
Instrument: Q Exactive Plus
Instrument type: LC-ESI-QFT
Ms type: MS2
Ion mode: POSITIVE
Ionization: ESI
Fragmentation mode: HCD
Collision energy: 45 % (nominal)
Resolution: 15000
Column name: XBridge C18 3.5um, 2.1x50mm, Waters
Retention time: 1.468 min
Base peak: 165.1385
Precursor m/z: 165.1386
Precursor type: [M+H]+
Precursor intensity: 713184621.11
m/z	relative intensity	assigned
121.0759	92	C7H9N2+
136.0994	999	C8H12N2+
165.1385	63	C10H17N2+
