Mass spectrum: Pyrimethamine; LC-ESI-QFT; MS2; CE: 180%; R=15000; [M+H]+
Name: Pyrimethamine
Name: 5-(4-chlorophenyl)-6-ethylpyrimidine-2,4-diamine
Formula: C12H13ClN4
Exact mass: 248.0828741
SMILES: CCC1=NC(N)=NC(N)=C1C1=CC=C(Cl)C=C1
InChI: InChI=1S/C12H13ClN4/c1-2-9-10(11(14)17-12(15)16-9)7-3-5-8(13)6-4-7/h3-6H,2H2,1H3,(H4,14,15,16,17)
Instrument: Q Exactive Plus
Instrument type: LC-ESI-QFT
Ms type: MS2
Ion mode: POSITIVE
Ionization: ESI
Fragmentation mode: HCD
Collision energy: 180 % (nominal)
Resolution: 15000
Column name: XBridge C18 3.5um, 2.1x50mm, Waters
Retention time: 5.158 min
Base peak: 249.0903
Precursor m/z: 249.0902
Precursor type: [M+H]+
Precursor intensity: 1238556926.84
m/z	relative intensity	assigned
50.0151	183	C4H2+
51.0229	351	C4H3+
53.0386	161	C4H5+
56.0495	16	C3H6N+
62.0151	77	C5H2+
63.0229	276	C5H3+
65.0387	79	C5H5+
68.0242	60	C2H2N3+
72.9841	119	C3H2Cl+
74.0151	359	C6H2+
75.0229	887	C6H3+
76.0307	153	C6H4+
77.0385	177	C6H5+
78.0464	350	C6H6+
84.984	42	C4H2Cl+
87.0229	89	C7H3+
88.0307	134	C7H4+
89.0386	585	C7H5+
90.0465	155	C7H6+
91.0544	74	C7H7+
96.9839	43	C5H2Cl+
98.0152	137	C8H2+
98.9998	63	C5H4Cl+
99.0103	104	C7HN+
99.0229	294	C8H3+
100.0181	216	C7H2N+
100.0309	67	C8H4+
102.0464	999	C8H6+
103.0543	143	C8H7+
104.0492	23	C7H6N+
105.0448	154	C6H5N2+
113.0386	254	C9H5+
114.0338	208	C8H4N+
114.0461	21	C9H6+
115.0414	40	C8H5N+
115.0542	339	C9H7+
117.0573	42	C8H7N+
122.9997	86	C7H4Cl+
125.0385	43	C10H5+
126.0342	101	C9H4N+
126.0464	374	C10H6+
127.0416	734	C9H5N+
127.0542	245	C10H7+
128.0495	325	C9H6N+
128.0619	557	C10H8+
129.0449	175	C8H5N2+
139.0414	47	C10H5N+
140.0495	176	C10H6N+
144.0445	80	C6H9ClN2+
145.0649	224	C7H12ClN+
146.0601	123	C6H11ClN2+
153.0447	64	C10H5N2+
154.0524	66	C10H6N2+
155.0603	787	C10H7N2+
161.0028	98	C9H4ClN+
162.0105	44	C9H5ClN+
163.0056	18	C8H4ClN2+
164.0259	22	C9H7ClN+
174.0105	89	C10H5ClN+
180.0555	25	C11H6N3+
