Mass spectrum: Triazophos; LC-ESI-QFT; MS2; CE: 75%; R=15000; [M+H]+
Name: Triazophos
Name: diethoxy-[(1-phenyl-1,2,4-triazol-3-yl)oxy]-sulfanylidene-lambda5-phosphane
Formula: C12H16N3O3PS
Exact mass: 313.064999
SMILES: CCOP(=S)(OCC)OC1=NN(C=N1)C2=CC=CC=C2
InChI: InChI=1S/C12H16N3O3PS/c1-3-16-19(20,17-4-2)18-12-13-10-15(14-12)11-8-6-5-7-9-11/h5-10H,3-4H2,1-2H3
Instrument: Exploris 240 Thermo Scientific
Instrument type: LC-ESI-QFT
Ms type: MS2
Ion mode: POSITIVE
Ionization: ESI
Fragmentation mode: HCD
Collision energy: 75 % (nominal)
Resolution: 15000
Column name: XBridge C18 3.5um, 2.1x50mm, Waters
Retention time: 9.744 min
Base peak: 314.072
Precursor m/z: 314.0723
Precursor type: [M+H]+
m/z	relative intensity	assigned
65.0385	26	C5H5+
77.0384	53	C6H5+
92.0494	247	C6H6N+
93.057	13	C6H7N+
95.0489	30	C6H7O+
96.9507	429	H2O2PS+
104.0495	50	C7H6N+
105.0446	17	C6H5N2+
114.9612	394	H4O3PS+
119.0602	999	C7H7N2+
120.068	140	C7H8N2+
145.0395	75	C8H5N2O+
162.066	731	C8H8N3O+
178.043	50	C8H8N3S+
