Mass spectrum: 2,2,4-Trimethyl-1,3-pentanediol diisobutyrate; LC-ESI-QFT; MS2; CE: 90%; R=15000; [M+H]+
Name: 2,2,4-Trimethyl-1,3-pentanediol diisobutyrate
Name: [2,2,4-trimethyl-3-(2-methylpropanoyloxy)pentyl] 2-methylpropanoate
Formula: C16H30O4
Exact mass: 286.2144094
SMILES: CC(C)C(C(C)(C)COC(=O)C(C)C)OC(=O)C(C)C
InChI: InChI=1S/C16H30O4/c1-10(2)13(20-15(18)12(5)6)16(7,8)9-19-14(17)11(3)4/h10-13H,9H2,1-8H3
Instrument: Exploris 240 Thermo Scientific
Instrument type: LC-ESI-QFT
Ms type: MS2
Ion mode: POSITIVE
Ionization: ESI
Fragmentation mode: HCD
Collision energy: 90 % (nominal)
Resolution: 15000
Column name: XBridge C18 3.5um, 2.1x50mm, Waters
Retention time: 13.676 min
Base peak: 309.2035
Precursor m/z: 287.2217
Precursor type: [M+H]+
m/z	relative intensity	assigned
55.0542	453	C4H7+
57.07	40	C4H9+
69.0698	999	C5H9+
