Mass spectrum: 4-Nitro-1,2-phenylenediamine; LC-ESI-QFT; MS2; CE: 150%; R=15000; [M+H]+
Name: 4-Nitro-1,2-phenylenediamine
Name: 4-Nitro-o-phenylenediamine
Name: 4-nitrobenzene-1,2-diamine
Formula: C6H7N3O2
Exact mass: 153.0538265
SMILES: NC1=C(N)C=C(C=C1)[N+]([O-])=O
InChI: InChI=1S/C6H7N3O2/c7-5-2-1-4(9(10)11)3-6(5)8/h1-3H,7-8H2
Instrument: Exploris 240 Thermo Scientific
Instrument type: LC-ESI-QFT
Ms type: MS2
Ion mode: POSITIVE
Ionization: ESI
Fragmentation mode: HCD
Collision energy: 150 % (nominal)
Resolution: 15000
Column name: XBridge C18 3.5um, 2.1x50mm, Waters
Retention time: 2.575 min
Base peak: 154.061
Precursor m/z: 154.0611
Precursor type: [M+H]+
m/z	relative intensity	assigned
51.023	11	C4H3+
53.0386	563	C4H5+
54.0339	20	C3H4N+
63.0229	470	C5H3+
64.0181	26	C4H2N+
67.0417	23	C4H5N+
80.0495	999	C5H6N+
81.0574	19	C5H7N+
90.0338	131	C6H4N+
92.0369	28	C5H4N2+
96.0442	13	C5H6NO+
107.0604	100	C6H7N2+
108.0444	68	C6H6NO+
108.0682	16	C6H8N2+
