Mass spectrum: Propyzamide; LC-ESI-QFT; MS2; CE: 45%; R=15000; [M-H]-
Name: Propyzamide
Name: 3,5-dichloro-N-(2-methylbut-3-yn-2-yl)benzamide
Formula: C12H11Cl2NO
Exact mass: 255.0217693
SMILES: CC(C)(NC(=O)C1=CC(Cl)=CC(Cl)=C1)C#C
InChI: InChI=1S/C12H11Cl2NO/c1-4-12(2,3)15-11(16)8-5-9(13)7-10(14)6-8/h1,5-7H,2-3H3,(H,15,16)
Instrument: Q Exactive Plus
Instrument type: LC-ESI-QFT
Ms type: MS2
Ion mode: NEGATIVE
Ionization: ESI
Fragmentation mode: HCD
Collision energy: 45 % (nominal)
Resolution: 15000
Column name: XBridge C18 3.5um, 2.1x50mm, Waters
Retention time: 9.554 min
Base peak: 190.9284
Precursor m/z: 254.0145
Precursor type: [M-H]-
Precursor intensity: 5474905.03
m/z	relative intensity	assigned
144.9617	999	C6H3Cl2-
186.9722	178	C8H5Cl2O-
212.9753	116	C9H5Cl2NO-
227.9988	616	C10H8Cl2NO-
