Mass spectrum: 5-Fluorocytosine; LC-ESI-QFT; MS2; CE: 180%; R=17500; [M+H]+
Name: 5-Fluorocytosine
Name: Flucytosine
Name: 6-amino-5-fluoro-1H-pyrimidin-2-one
Formula: C4H4FN3O
Exact mass: 129.03384
SMILES: C1=NC(=O)NC(=C1F)N
InChI: InChI=1S/C4H4FN3O/c5-2-1-7-4(9)8-3(2)6/h1H,(H3,6,7,8,9)
Instrument: Exploris 240 Orbitrap Thermo Scientific
Instrument type: LC-ESI-QFT
Ms type: MS2
Ion mode: POSITIVE
Ionization: ESI
Fragmentation mode: HCD
Collision energy: 180 % (nominal)
Resolution: 17500
Column name: XBridge C18 3.5um, 2.1x50mm, Waters
Retention time: 0.909 min
Base peak: 130.041
Precursor m/z: 130.0411
Precursor type: [M+H]+
m/z	relative intensity	assigned
43.029	10	CH3N2+
44.013	6	CH2NO+
46.0087	5	CHFN+
47.0165	6	CH2FN+
55.029	4	C2H3N2+
56.013	27	C2H2NO+
58.0087	999	C2HFN+
60.0244	79	C2H3FN+
65.0135	19	C3HN2+
67.0291	29	C3H3N2+
69.0085	14	C2HN2O+
70.0087	5	C3HFN+
85.0197	56	C3H2FN2+
87.0352	11	C3H4FN2+
113.0143	35	C4H2FN2O+
