Mass spectrum: Bisacodyl; LC-ESI-QFT; MS2; CE: 90%; R=15000; [M+H]+
Name: Bisacodyl
Name: [4-[(4-acetyloxyphenyl)-pyridin-2-ylmethyl]phenyl] acetate
Formula: C22H19NO4
Exact mass: 361.1314081
SMILES: CC(=O)OC1=CC=C(C=C1)C(C2=CC=C(C=C2)OC(=O)C)C3=CC=CC=N3
InChI: InChI=1S/C22H19NO4/c1-15(24)26-19-10-6-17(7-11-19)22(21-5-3-4-14-23-21)18-8-12-20(13-9-18)27-16(2)25/h3-14,22H,1-2H3
Instrument: Exploris 240 Thermo Scientific
Instrument type: LC-ESI-QFT
Ms type: MS2
Ion mode: POSITIVE
Ionization: ESI
Fragmentation mode: HCD
Collision energy: 90 % (nominal)
Resolution: 15000
Column name: XBridge C18 3.5um, 2.1x50mm, Waters
Retention time: 6.583 min
Base peak: 362.1387
Precursor m/z: 362.1387
Precursor type: [M+H]+
m/z	relative intensity	assigned
154.0652	50	C11H8N+
155.0728	24	C11H9N+
156.0808	114	C11H10N+
166.0651	49	C12H8N+
167.0729	817	C12H9N+
183.0677	842	C12H9NO+
184.0756	999	C12H10NO+
