Mass spectrum: Tetramethrin; LC-ESI-QFT; MS2; CE: 120%; R=15000; [M+H]+
Name: Tetramethrin
Name: (1,3-dioxo-4,5,6,7-tetrahydroisoindol-2-yl)methyl 2,2-dimethyl-3-(2-methylprop-1-enyl)cyclopropane-1-carboxylate
Formula: C19H25NO4
Exact mass: 331.1783583
SMILES: CC(=CC1C(C1(C)C)C(=O)OCN2C(=O)C3=C(C2=O)CCCC3)C
InChI: InChI=1S/C19H25NO4/c1-11(2)9-14-15(19(14,3)4)18(23)24-10-20-16(21)12-7-5-6-8-13(12)17(20)22/h9,14-15H,5-8,10H2,1-4H3
Instrument: Exploris 240 Thermo Scientific
Instrument type: LC-ESI-QFT
Ms type: MS2
Ion mode: POSITIVE
Ionization: ESI
Fragmentation mode: HCD
Collision energy: 120 % (nominal)
Resolution: 15000
Column name: XBridge C18 3.5um, 2.1x50mm, Waters
Retention time: 13.389 min
Base peak: 332.1851
Precursor m/z: 332.1856
Precursor type: [M+H]+
m/z	relative intensity	assigned
51.0228	59	C4H3+
53.0385	236	C4H5+
55.0541	119	C4H7+
65.0385	111	C5H5+
66.0463	25	C5H6+
67.0541	185	C5H7+
77.0384	852	C6H5+
79.0541	999	C6H7+
80.0494	55	C5H6N+
81.0698	232	C6H9+
91.0541	474	C7H7+
93.0574	36	C6H7N+
93.0699	61	C7H9+
94.0412	31	C6H6O+
95.049	530	C6H7O+
105.0696	179	C8H9+
107.0489	434	C7H7O+
108.0807	32	C7H10N+
135.0441	38	C8H7O2+
