Mass spectrum: Flurprimidol; LC-ESI-QFT; MS2; CE: 150%; R=15000; [M+H]+
Name: Flurprimidol
Name: 2-methyl-1-pyrimidin-5-yl-1-[4-(trifluoromethoxy)phenyl]propan-1-ol
Formula: C15H15F3N2O2
Exact mass: 312.1085624
SMILES: CC(C)C(C1=CC=C(C=C1)OC(F)(F)F)(C2=CN=CN=C2)O
InChI: InChI=1S/C15H15F3N2O2/c1-10(2)14(21,12-7-19-9-20-8-12)11-3-5-13(6-4-11)22-15(16,17)18/h3-10,21H,1-2H3
Instrument: Exploris 240 Thermo Scientific
Instrument type: LC-ESI-QFT
Ms type: MS2
Ion mode: POSITIVE
Ionization: ESI
Fragmentation mode: HCD
Collision energy: 150 % (nominal)
Resolution: 15000
Column name: XBridge C18 3.5um, 2.1x50mm, Waters
Retention time: 9.380 min
Base peak: 313.1155
Precursor m/z: 313.1158
Precursor type: [M+H]+
m/z	relative intensity	assigned
52.0182	119	C3H2N+
53.0023	70	C3HO+
53.026	53	C3H3N+
54.0338	615	C3H4N+
65.0386	92	C5H5+
68.9947	257	CF3+
75.0229	983	C6H3+
77.0386	159	C6H5+
80.0371	120	C4H4N2+
81.0447	472	C4H5N2+
83.0292	36	C5H4F+
90.0465	73	C7H6+
91.0543	189	C7H7+
95.0292	437	C6H4F+
95.0493	95	C6H7O+
101.0388	79	C8H5+
103.0542	186	C8H7+
113.0397	462	C6H6FO+
115.0543	69	C9H7+
117.0573	604	C8H7N+
123.0353	999	C6H4FN2+
128.0496	97	C9H6N+
130.0648	120	C9H8N+
155.0604	40	C10H7N2+
