Mass spectrum: 4-(Methylthio)benzaldehyde; LC-ESI-QFT; MS2; CE: 45%; R=15000; [M+H]+
Name: 4-(Methylthio)benzaldehyde
Name: 4-methylsulfanylbenzaldehyde
Formula: C8H8OS
Exact mass: 152.0295859
SMILES: CSC1=CC=C(C=O)C=C1
InChI: InChI=1S/C8H8OS/c1-10-8-4-2-7(6-9)3-5-8/h2-6H,1H3
Instrument: Exploris 240 Thermo Scientific
Instrument type: LC-ESI-QFT
Ms type: MS2
Ion mode: POSITIVE
Ionization: ESI
Fragmentation mode: HCD
Collision energy: 45 % (nominal)
Resolution: 15000
Column name: XBridge C18 3.5um, 2.1x50mm, Waters
Retention time: 6.327 min
Base peak: 132.9581
Precursor m/z: 153.0369
Precursor type: [M+H]+
m/z	relative intensity	assigned
78.0464	27	C6H6+
79.0542	32	C6H7+
109.0106	999	C6H5S+
110.0184	82	C6H6S+
111.0261	43	C6H7S+
125.0419	662	C7H9S+
153.0368	783	C8H9OS+
