Mass spectrum: Fluazifop-butyl; LC-ESI-QFT; MS2; CE: 90%; R=15000; [M+H]+
Name: Fluazifop-butyl
Name: butyl 2-[4-[5-(trifluoromethyl)pyridin-2-yl]oxyphenoxy]propanoate
Formula: C19H20F3NO4
Exact mass: 383.1344428
SMILES: CCCCOC(=O)C(C)OC1=CC=C(OC2=CC=C(C=N2)C(F)(F)F)C=C1
InChI: InChI=1S/C19H20F3NO4/c1-3-4-11-25-18(24)13(2)26-15-6-8-16(9-7-15)27-17-10-5-14(12-23-17)19(20,21)22/h5-10,12-13H,3-4,11H2,1-2H3
Instrument: Q Exactive Plus
Instrument type: LC-ESI-QFT
Ms type: MS2
Ion mode: POSITIVE
Ionization: ESI
Fragmentation mode: HCD
Collision energy: 90 % (nominal)
Resolution: 15000
Column name: XBridge C18 3.5um, 2.1x50mm, Waters
Retention time: 13.597 min
Base peak: 384.142
Precursor m/z: 384.1417
Precursor type: [M+H]+
Precursor intensity: 286626437.05
m/z	relative intensity	assigned
53.0022	16	C3HO+
53.0386	16	C4H5+
55.018	25	C3H3O+
57.0699	29	C4H9+
63.0229	40	C5H3+
64.0308	15	C5H4+
65.0386	787	C5H5+
75.0042	31	C3HF2+
75.0229	83	C6H3+
78.0337	10	C5H4N+
81.0334	14	C5H5O+
91.0542	999	C7H7+
92.0258	23	C6H4O+
93.0337	11	C6H5O+
94.0414	27	C6H6O+
95.0492	35	C6H7O+
99.0041	14	C5HF2+
103.0544	26	C8H7+
104.0132	55	C6H2NO+
107.0491	14	C7H7O+
110.0363	14	C6H6O2+
111.044	24	C6H7O2+
117.0571	14	C8H7N+
119.049	11	C8H7O+
121.0282	17	C7H5O2+
124.0193	20	C6H3FNO+
126.015	25	C6H2F2N+
127.0227	25	C6H3F2N+
130.0652	46	C9H8N+
131.0491	124	C9H7O+
133.0445	21	C9H6F+
140.0495	47	C10H6N+
141.0573	306	C10H7N+
145.033	20	C6H5F2NO+
146.0213	76	C6H3F3N+
147.0287	41	C6H4F3N+
151.0353	10	C9H5F2+
158.0602	75	C10H8NO+
159.0477	11	C10H6FN+
164.0317	398	C6H5F3NO+
167.0731	20	C12H9N+
168.0445	85	C11H6NO+
169.0521	43	C11H7NO+
170.0397	13	C11H5FN+
178.0466	11	C10H6F2N+
179.0189	112	C6H4F3NO2+
180.0381	44	C10H6F2O+
185.0454	42	C9H6F3N+
188.0506	52	C11H7FNO+
190.0461	116	C11H6F2N+
198.0524	74	C10H7F3N+
209.0448	61	C11H6F3N+
210.0525	32	C11H7F3N+
211.0602	29	C11H8F3N+
218.0412	133	C12H6F2NO+
226.0474	45	C11H7F3NO+
227.0553	87	C11H8F3NO+
235.0598	20	C13H8F3N+
238.0474	255	C12H7F3NO+
254.0422	270	C12H7F3NO2+
