Mass spectrum: Gliclazide; LC-ESI-QFT; MS2; CE: 60%; R=15000; [M-H]-
Name: Gliclazide
Name: 1-(3,3a,4,5,6,6a-hexahydro-1H-cyclopenta[c]pyrrol-2-yl)-3-(4-methylphenyl)sulfonylurea
Name: 1-(3,3a,4,5,6,6a-hexahydro-1H-cyclopenta[c]pyrrol-2-yl)-3-(4-methylphenyl)sulfonyl-urea
Formula: C15H21N3O3S
Exact mass: 323.1303625
SMILES: CC1=CC=C(C=C1)S(=O)(=O)NC(=O)NN2CC3CCCC3C2
InChI: InChI=1S/C15H21N3O3S/c1-11-5-7-14(8-6-11)22(20,21)17-15(19)16-18-9-12-3-2-4-13(12)10-18/h5-8,12-13H,2-4,9-10H2,1H3,(H2,16,17,19)
Instrument: Q Exactive
Instrument type: LC-ESI-QFT
Ms type: MS2
Ion mode: NEGATIVE
Ionization: ESI
Fragmentation mode: HCD
Collision energy: 60 % (nominal)
Resolution: 15000
Column name: XBridge C18 3.5um, 2.1x50mm, Waters
Retention time: 8.029 min
Base peak: 322.1231
Precursor m/z: 322.1231
Precursor type: [M-H]-
Precursor intensity: 310160938.23
m/z	relative intensity	assigned
61.9704	17	NOS-
63.9624	15	O2S-
78.9733	56	HNO2S-
79.9811	89	H2NO2S-
106.0662	572	C7H8N-
107.0502	14	C7H7O-
170.028	999	C7H8NO2S-
