Mass spectrum: Malathion; LC-ESI-QFT; MS2; CE: 90%; R=15000; [M+H]+
Name: Malathion
Name: diethyl 2-dimethoxyphosphinothioylsulfanylbutanedioate
Formula: C10H19O6PS2
Exact mass: 330.036067
SMILES: CCOC(=O)CC(C(=O)OCC)SP(=S)(OC)OC
InChI: InChI=1S/C10H19O6PS2/c1-5-15-9(11)7-8(10(12)16-6-2)19-17(18,13-3)14-4/h8H,5-7H2,1-4H3
Instrument: Exploris 240 Thermo Scientific
Instrument type: LC-ESI-QFT
Ms type: MS2
Ion mode: POSITIVE
Ionization: ESI
Fragmentation mode: HCD
Collision energy: 90 % (nominal)
Resolution: 15000
Column name: XBridge C18 3.5um, 2.1x50mm, Waters
Retention time: 9.256 min
Base peak: 331.0434
Precursor m/z: 331.0433
Precursor type: [M+H]+
m/z	relative intensity	assigned
53.0022	64	C3HO+
58.995	56	C2H3S+
62.0185	58	C2H6S+
71.0127	401	C3H3O2+
78.9943	427	CH4O2P+
86.9898	65	C3H3OS+
94.9172	10	PS2+
99.0076	999	C4H3O3+
110.9665	22	CH4O2PS+
113.0233	17	C5H5O3+
118.9619	36	C3H3OS2+
124.982	236	C2H6O2PS+
142.9926	218	C2H8O3PS+
