Mass spectrum: N-Methylpregabalin; LC-ESI-QFT; MS2; CE: 75%; R=17500; [M+H]+
Name: N-Methylpregabalin
Name: 5-methyl-3-[(methylazaniumyl)methyl]hexanoate
Formula: C9H19NO2
Exact mass: 173.1415788
SMILES: CC(C)CC(CC(=O)O)CNC
InChI: InChI=1S/C9H19NO2/c1-7(2)4-8(6-10-3)5-9(11)12/h7-8,10H,4-6H2,1-3H3,(H,11,12)
Instrument: Exploris 240 Orbitrap Thermo Scientific
Instrument type: LC-ESI-QFT
Ms type: MS2
Ion mode: POSITIVE
Ionization: ESI
Fragmentation mode: HCD
Collision energy: 75 % (nominal)
Resolution: 17500
Column name: XBridge C18 3.5um, 2.1x50mm, Waters
Retention time: 3.329 min
Base peak: 174.1486
Precursor m/z: 174.1489
Precursor type: [M+H]+
m/z	relative intensity	assigned
41.0386	29	C3H5+
43.0179	24	C2H3O+
43.0543	17	C3H7+
44.0495	31	C2H6N+
55.0178	235	C3H3O+
55.0542	999	C4H7+
57.0699	138	C4H9+
58.0289	42	C2H4NO+
59.0491	68	C3H7O+
67.0541	14	C5H7+
69.0335	36	C4H5O+
69.0699	109	C5H9+
70.0652	23	C4H8N+
79.0544	32	C6H7+
81.0699	30	C6H9+
82.0651	167	C5H8N+
83.0494	24	C5H7O+
83.0855	340	C6H11+
96.081	24	C6H10N+
97.1012	139	C7H13+
99.068	20	C5H9NO+
107.0857	40	C8H11+
125.0963	26	C8H13O+
138.1277	170	C9H16N+
156.1383	112	C9H18NO+
