Mass spectrum: 4-Hydroxypropanolol-sulfate; LC-ESI-QFT; MS2; CE: 90%; R=17500; [M+H]+
Name: 4-Hydroxypropanolol-sulfate
Name: 4-[2-Hydroxy-3-(propan-2-ylamino)propoxy]naphthalen-1-yl hydrogen sulfate
Name: [4-[2-hydroxy-3-(propan-2-ylamino)propoxy]naphthalen-1-yl] hydrogen sulfate
Name: HOPS
Formula: C16H21NO6S
Exact mass: 355.1089584
SMILES: CC(C)NCC(COC1=CC=C(C2=CC=CC=C21)OS(=O)(=O)O)O
InChI: InChI=1S/C16H21NO6S/c1-11(2)17-9-12(18)10-22-15-7-8-16(23-24(19,20)21)14-6-4-3-5-13(14)15/h3-8,11-12,17-18H,9-10H2,1-2H3,(H,19,20,21)
Instrument: Exploris 240 Orbitrap Thermo Scientific
Instrument type: LC-ESI-QFT
Ms type: MS2
Ion mode: POSITIVE
Ionization: ESI
Fragmentation mode: HCD
Collision energy: 90 % (nominal)
Resolution: 17500
Column name: XBridge C18 3.5um, 2.1x50mm, Waters
Retention time: 3.203 min
Base peak: 356.1162
Precursor m/z: 356.1162
Precursor type: [M+H]+
m/z	relative intensity	assigned
56.0495	464	C3H6N+
58.0651	999	C3H8N+
72.0808	260	C4H10N+
74.0601	205	C3H8NO+
84.0809	64	C5H10N+
91.0543	10	C7H7+
98.0969	15	C6H12N+
100.1122	135	C6H14N+
103.0545	30	C8H7+
105.0337	84	C7H5O+
115.0541	88	C9H7+
116.1069	49	C6H14NO+
117.0701	38	C9H9+
128.0621	110	C10H8+
129.0702	14	C10H9+
131.0494	44	C9H7O+
141.0699	16	C11H9+
143.0494	11	C10H7O+
143.086	27	C11H11+
145.0649	59	C10H9O+
152.0626	51	C12H8+
153.07	59	C12H9+
155.061	27	C4H13NO3S+
157.065	34	C11H9O+
159.0437	20	C10H7O2+
160.0526	11	C10H8O2+
171.0443	10	C11H7O2+
173.0602	35	C11H9O2+
