Mass spectrum: Acetochlor; LC-ESI-QFT; MS2; CE: 150%; R=15000; [M+H]+
Name: Acetochlor
Name: 2-chloro-N-(ethoxymethyl)-N-(2-ethyl-6-methylphenyl)acetamide
Formula: C14H20ClNO2
Exact mass: 269.1182566
SMILES: CCOCN(C(=O)CCl)C1=C(CC)C=CC=C1C
InChI: InChI=1S/C14H20ClNO2/c1-4-12-8-6-7-11(3)14(12)16(10-18-5-2)13(17)9-15/h6-8H,4-5,9-10H2,1-3H3
Instrument: Q Exactive Plus
Instrument type: LC-ESI-QFT
Ms type: MS2
Ion mode: POSITIVE
Ionization: ESI
Fragmentation mode: HCD
Collision energy: 150 % (nominal)
Resolution: 15000
Column name: XBridge C18 3.5um, 2.1x50mm, Waters
Retention time: 10.338 min
Base peak: 224.0838
Precursor m/z: 270.1255
Precursor type: [M+H]+
Precursor intensity: 108840014.11
m/z	relative intensity	assigned
65.0386	329	C5H5+
79.0542	150	C6H7+
89.0387	138	C7H5+
91.0542	747	C7H7+
95.0492	227	C6H7O+
103.0544	167	C8H7+
105.0699	190	C8H9+
106.0652	194	C7H8N+
115.0542	468	C9H7+
117.0573	999	C8H7N+
132.0808	555	C9H10N+
