Mass spectrum: Sulfentrazone; LC-ESI-QFT; MS2; CE: 90%; R=15000; [M+H]+
Name: Sulfentrazone
Name: N-[2,4-dichloro-5-[4-(difluoromethyl)-3-methyl-5-oxo-1,2,4-triazol-1-yl]phenyl]methanesulfonamide
Formula: C11H10Cl2F2N4O3S
Exact mass: 385.981873
SMILES: CC1=NN(C(=O)N1C(F)F)C1=CC(NS(C)(=O)=O)=C(Cl)C=C1Cl
InChI: InChI=1S/C11H10Cl2F2N4O3S/c1-5-16-19(11(20)18(5)10(14)15)9-4-8(17-23(2,21)22)6(12)3-7(9)13/h3-4,10,17H,1-2H3
Instrument: Q Exactive Plus
Instrument type: LC-ESI-QFT
Ms type: MS2
Ion mode: POSITIVE
Ionization: ESI
Fragmentation mode: HCD
Collision energy: 90 % (nominal)
Resolution: 15000
Column name: XBridge C18 3.5um, 2.1x50mm, Waters
Retention time: 6.517 min
Base peak: 386.9893
Precursor m/z: 386.9891
Precursor type: [M+H]+
Precursor intensity: 79056822.8
m/z	relative intensity	assigned
61.9792	132	CHClN+
68.0131	15	C3H2NO+
72.9839	45	C3H2Cl+
74.0036	44	C2HFNO+
75.0103	47	C5HN+
76.0181	73	C5H2N+
82.945	31	CHCl2+
84.9839	99	C4H2Cl+
85.9793	16	C3HClN+
92.013	20	C5H2NO+
92.0306	31	C3H4F2N+
97.9791	43	C4HClN+
99.0425	20	C3H5N3O+
99.9947	36	C4H3ClN+
100.0055	10	C6N2+
101.0134	157	C6HN2+
103.029	53	C6H3N2+
106.9449	19	C3HCl2+
109.9791	999	C5HClN+
111.9948	168	C5H3ClN+
118.9451	16	C4HCl2+
119.0239	20	C6H3N2O+
121.0397	13	C6H5N2O+
127.0057	10	C5H4ClN2+
127.9897	165	ClFH2N4O+
136.99	177	C6H2ClN2+
139.0057	451	C6H4ClN2+
145.9558	322	C5H2Cl2N+
146.9636	17	Cl2FH2N4+
147.9715	49	C5H4Cl2N+
153.0086	10	C6H4ClN3+
154.0166	117	C6H5ClN3+
155.0005	145	C6H4ClN2O+
157.9558	118	C6H2Cl2N+
163.9662	276	Cl2FH3N4O+
170.951	19	C6HCl2N2+
172.9666	53	C6H3Cl2N2+
173.9506	30	C6ClFO3+
181.0399	10	C11H5N2O+
182.0114	403	C7H5ClN3O+
198.9459	22	C7HCl2N2O+
223.0377	13	C9H8ClN4O+
