Mass spectrum: 6-O-Desmethyl-mycophenolic acid; LC-ESI-QFT; MS2; CE: 60%; R=17500; [M+H]+
Name: 6-O-Desmethyl-mycophenolic acid
Name: 6-(4,6-dihydroxy-7-methyl-3-oxo-1H-2-benzofuran-5-yl)-4-methylhex-4-enoic acid
Formula: C16H18O6
Exact mass: 306.1103383
SMILES: CC1=C2COC(=O)C2=C(C(=C1O)CC=C(C)CCC(=O)O)O
InChI: InChI=1S/C16H18O6/c1-8(4-6-12(17)18)3-5-10-14(19)9(2)11-7-22-16(21)13(11)15(10)20/h3,19-20H,4-7H2,1-2H3,(H,17,18)
Instrument: Exploris 240 Orbitrap Thermo Scientific
Instrument type: LC-ESI-QFT
Ms type: MS2
Ion mode: POSITIVE
Ionization: ESI
Fragmentation mode: HCD
Collision energy: 60 % (nominal)
Resolution: 17500
Column name: XBridge C18 3.5um, 2.1x50mm, Waters
Retention time: 6.296 min
Base peak: 307.1173
Precursor m/z: 307.1176
Precursor type: [M+H]+
m/z	relative intensity	assigned
55.0179	7	C3H3O+
69.0698	7	C5H9+
79.0543	4	C6H7+
81.0698	15	C6H9+
97.0648	17	C6H9O+
136.0519	4	C8H8O2+
137.0596	8	C8H9O2+
161.0599	3	C10H9O2+
163.0391	7	C9H7O3+
164.0472	8	C9H8O3+
165.0547	84	C9H9O3+
181.0499	17	C9H9O4+
193.0495	999	C10H9O4+
201.0912	5	C13H13O2+
209.0441	6	C10H9O5+
225.0921	9	C15H13O2+
227.1076	4	C15H15O2+
253.0859	5	C16H13O3+
261.112	4	C15H17O4+
271.0973	13	C16H15O4+
