Mass spectrum: 2-Acetylaminofluorene; LC-ESI-QFT; MS2; CE: 45%; R=15000; [M+H]+
Name: 2-Acetylaminofluorene
Name: N-(9H-fluoren-2-yl)acetamide
Formula: C15H13NO
Exact mass: 223.099714
SMILES: CC(=O)NC1=CC=C2C(CC3=C2C=CC=C3)=C1
InChI: InChI=1S/C15H13NO/c1-10(17)16-13-6-7-15-12(9-13)8-11-4-2-3-5-14(11)15/h2-7,9H,8H2,1H3,(H,16,17)
Instrument: Q Exactive Plus
Instrument type: LC-ESI-QFT
Ms type: MS2
Ion mode: POSITIVE
Ionization: ESI
Fragmentation mode: HCD
Collision energy: 45 % (nominal)
Resolution: 15000
Column name: XBridge C18 3.5um, 2.1x50mm, Waters
Retention time: 8.918 min
Base peak: 224.107
Precursor m/z: 224.107
Precursor type: [M+H]+
Precursor intensity: 497879017.52
m/z	relative intensity	assigned
165.0699	43	C13H9+
180.0807	15	C13H10N+
181.0886	19	C13H11N+
182.0964	999	C13H12N+
183.0803	43	C13H11O+
206.0964	40	C15H12N+
224.1069	287	C15H14NO+
