Mass spectrum: Lufenuron; LC-ESI-QFT; MS2; CE: 45%; R=15000; [M-H]-
Name: Lufenuron
Name: N-[[2,5-dichloro-4-(1,1,2,3,3,3-hexafluoropropoxy)phenyl]carbamoyl]-2,6-difluorobenzamide
Formula: C17H8Cl2F8N2O3
Exact mass: 509.9784232
SMILES: FC(C(F)(F)F)C(F)(F)OC1=CC(Cl)=C(NC(=O)NC(=O)C2=C(F)C=CC=C2F)C=C1Cl
InChI: InChI=1S/C17H8Cl2F8N2O3/c18-6-5-11(32-17(26,27)14(22)16(23,24)25)7(19)4-10(6)28-15(31)29-13(30)12-8(20)2-1-3-9(12)21/h1-5,14H,(H2,28,29,30,31)
Instrument: Q Exactive Plus
Instrument type: LC-ESI-QFT
Ms type: MS2
Ion mode: NEGATIVE
Ionization: ESI
Fragmentation mode: HCD
Collision energy: 45 % (nominal)
Resolution: 15000
Column name: XBridge C18 3.5um, 2.1x50mm, Waters
Retention time: 14.428 min
Base peak: 508.9711
Precursor m/z: 508.9711
Precursor type: [M-H]-
Precursor intensity: 76799531.46
m/z	relative intensity	assigned
113.0209	42	C6H3F2-
130.9924	21	C3F5-
146.9875	40	C3F5O-
165.97	22	C7HClNO2-
174.9597	999	C6H3Cl2NO-
199.955	44	C7H2Cl2N2O-
201.9468	193	C7H2Cl2NO2-
258	16	C5H5ClF6N2O-
265.9396	18	C9HCl2F3NO-
285.9455	20	C9H2Cl2F4NO-
302.9978	56	C14H5ClFN2O3-
338.9743	45	C6H7Cl2F6N2O3-
