Mass spectrum: Fluralaner; LC-ESI-QFT; MS2; CE: 90%; R=17500; [M-H]-
Name: Fluralaner
Name: 4-[5-(3,5-dichlorophenyl)-5-(trifluoromethyl)-4H-1,2-oxazol-3-yl]-2-methyl-N-[2-oxo-2-(2,2,2-trifluoroethylamino)ethyl]benzamide
Formula: C22H17Cl2F6N3O3
Exact mass: 555.055116084
SMILES: CC1=C(C=CC(=C1)C2=NOC(C2)(C3=CC(=CC(=C3)Cl)Cl)C(F)(F)F)C(=O)NCC(=O)NCC(F)(F)F
InChI: InChI=1S/C22H17Cl2F6N3O3/c1-11-4-12(2-3-16(11)19(35)31-9-18(34)32-10-21(25,26)27)17-8-20(36-33-17,22(28,29)30)13-5-14(23)7-15(24)6-13/h2-7H,8-10H2,1H3,(H,31,35)(H,32,34)
Instrument: Exploris 240 Orbitrap Thermo Scientific
Instrument type: LC-ESI-QFT
Ms type: MS2
Ion mode: NEGATIVE
Ionization: ESI
Fragmentation mode: HCD
Collision energy: 90 % (nominal)
Resolution: 17500
Column name: XBridge C18 3.5um, 2.1x50mm, Waters
Retention time: 13.362 min
Base peak: 311.1686
Precursor m/z: 554.0478
Precursor type: [M-H]-
m/z	relative intensity	assigned
65.0145	44	C3HN2-
65.9985	999	C3NO-
67.0302	87	C3H3N2-
68.9958	482	CF3-
76.0003	38	C2F2N-
86.0049	43	C3HFNO-
94.0173	93	C4H2N2O-
95.0251	367	C4H3N2O-
103.9953	26	C3F2NO-
113.0158	235	C4H2FN2O-
116.0508	46	C8H6N-
132.0456	77	C8H6NO-
142.03	25	C9H4NO-
167.0614	40	C3H8F5N2-
169.0409	72	C10H5N2O-
169.9571	124	C7H2Cl2N-
183.0571	20	C5H12ClF4-
211.9675	100	C9H4Cl2NO-
