Mass spectrum: Dichlorvos; LC-ESI-QFT; MS2; CE: 90%; R=15000; [M+H]+
Name: Dichlorvos
Name: 2,2-dichloroethenyl dimethyl phosphate
Formula: C4H7Cl2O4P
Exact mass: 219.9459007
SMILES: COP(=O)(OC)OC=C(Cl)Cl
InChI: InChI=1S/C4H7Cl2O4P/c1-8-11(7,9-2)10-3-4(5)6/h3H,1-2H3
Instrument: Q Exactive Plus
Instrument type: LC-ESI-QFT
Ms type: MS2
Ion mode: POSITIVE
Ionization: ESI
Fragmentation mode: HCD
Collision energy: 90 % (nominal)
Resolution: 15000
Column name: XBridge C18 3.5um, 2.1x50mm, Waters
Retention time: 6.096 min
Base peak: 220.9533
Precursor m/z: 220.9532
Precursor type: [M+H]+
Precursor intensity: 774016924.06
m/z	relative intensity	assigned
59.9761	102	C2HCl+
64.9787	15	H2O2P+
78.9943	713	CH4O2P+
82.9449	17	CHCl2+
96.9605	76	CH3ClOP+
97.0048	39	CH6O3P+
98.9841	21	H4O4P+
111.9478	21	C2H2Cl2O+
112.9998	203	CH6O4P+
127.0155	999	C2H8O4P+
