Mass spectrum: Triclopyr; LC-ESI-QFT; MS2; CE: 75%; R=15000; [M+H]+
Name: Triclopyr
Name: 2-(3,5,6-trichloropyridin-2-yl)oxyacetic acid
Formula: C7H4Cl3NO3
Exact mass: 254.925676
SMILES: OC(=O)COC1=C(Cl)C=C(Cl)C(Cl)=N1
InChI: InChI=1S/C7H4Cl3NO3/c8-3-1-4(9)7(11-6(3)10)14-2-5(12)13/h1H,2H2,(H,12,13)
Instrument: Q Exactive Plus
Instrument type: LC-ESI-QFT
Ms type: MS2
Ion mode: POSITIVE
Ionization: ESI
Fragmentation mode: HCD
Collision energy: 75 % (nominal)
Resolution: 15000
Column name: XBridge C18 3.5um, 2.1x50mm, Waters
Retention time: 9.064 min
Base peak: 164.9845
Precursor m/z: 255.933
Precursor type: [M+H]+
Precursor intensity: 4419539.74
m/z	relative intensity	assigned
61.9791	34	CHClN+
62.9632	223	CClO+
84.9839	37	C4H2Cl+
97.9793	30	C4HClN+
106.945	250	C3HCl2+
109.9792	372	C5HClN+
118.945	95	C4HCl2+
127.9897	82	C5H3ClNO+
133.9558	100	C4H2Cl2N+
145.9558	289	C5H2Cl2N+
146.0004	73	C5H5ClNO2+
146.9637	20	C5H3Cl2N+
161.9507	118	C5H2Cl2NO+
163.9664	999	C5H4Cl2NO+
179.9168	378	C5HCl3N+
179.961	159	C5H4Cl2NO2+
181.9325	94	C5H3Cl3N+
197.9274	541	C5H3Cl3NO+
