Mass spectrum: 2-ClPFPECA-0-2; LC-ESI-QFT; MS2; CE: 60%; R=17500; [M-H]-
Name: 2-ClPFPECA-0-2
Name: 2-Chloro-perfluoroethercarboxylate congener 0,2
Name: 2-[1-[1-(2-chloro-1,1,2,3,3,3-hexafluoropropoxy)-1,1,2,3,3,3-hexafluoropropan-2-yl]oxy-1,1,2,3,3,3-hexafluoropropan-2-yl]oxy-2,2-difluoroacetic acid
Formula: C11HClF20O5
Exact mass: 627.919315212
SMILES: C(=O)(C(OC(C(OC(C(OC(C(C(F)(F)F)(F)Cl)(F)F)(F)F)(C(F)(F)F)F)(F)F)(C(F)(F)F)F)(F)F)O
InChI: InChI=1S/C11HClF20O5/c12-3(15,6(18,19)20)9(27,28)37-11(31,32)5(17,8(24,25)26)36-10(29,30)4(16,7(21,22)23)35-2(13,14)1(33)34/h(H,33,34)
Instrument: Exploris 240 Orbitrap Thermo Scientific
Instrument type: LC-ESI-QFT
Ms type: MS2
Ion mode: NEGATIVE
Ionization: ESI
Fragmentation mode: HCD
Collision energy: 60 % (nominal)
Resolution: 17500
Column name: XBridge C18 3.5um, 2.1x50mm, Waters
Retention time: 12.933 min
Base peak: 532.9251
Precursor m/z: 626.912
Precursor type: [M-H]-
m/z	relative intensity	assigned
68.9956	206	CF3-
134.963	704	C2ClF4-
134.9874	93	C2F5O-
184.9845	162	C3F7O-
200.9546	999	C3ClF6O-
