Mass spectrum: para-Hydroxyatorvastatin; LC-ESI-QFT; MS2; CE: 15%; R=17500; [M-H]-
Name: para-Hydroxyatorvastatin
Name: 7-[2-(4-fluorophenyl)-4-[(4-hydroxyphenyl)carbamoyl]-3-phenyl-5-propan-2-ylpyrrol-1-yl]-3,5-dihydroxyheptanoic acid
Formula: C33H35FN2O6
Exact mass: 574.2479151
SMILES: CC(C)C1=C(C(=C(N1CCC(CC(CC(=O)O)O)O)C2=CC=C(C=C2)F)C3=CC=CC=C3)C(=O)NC4=CC=C(C=C4)O
InChI: InChI=1S/C33H35FN2O6/c1-20(2)31-30(33(42)35-24-12-14-25(37)15-13-24)29(21-6-4-3-5-7-21)32(22-8-10-23(34)11-9-22)36(31)17-16-26(38)18-27(39)19-28(40)41/h3-15,20,26-27,37-39H,16-19H2,1-2H3,(H,35,42)(H,40,41)
Instrument: Exploris 240 Orbitrap Thermo Scientific
Instrument type: LC-ESI-QFT
Ms type: MS2
Ion mode: NEGATIVE
Ionization: ESI
Fragmentation mode: HCD
Collision energy: 15 % (nominal)
Resolution: 17500
Column name: XBridge C18 3.5um, 2.1x50mm, Waters
Retention time: 8.179 min
Base peak: 573.2404
Precursor m/z: 573.2406
Precursor type: [M-H]-
m/z	relative intensity	assigned
85.0292	1	C4H5O2-
413.1668	44	C29H21N2O-
469.1939	18	C32H25N2O2-
495.2097	2	C31H28FN2O3-
511.2382	2	C32H32FN2O3-
537.2188	7	C33H30FN2O4-
555.2301	7	C33H32FN2O5-
573.2408	999	C33H34FN2O6-
