Mass spectrum: 6-2-FTAB; LC-ESI-QFT; MS2; CE: 60%; R=17500; [M-H]-
Name: 6-2-FTAB
Name: 1-Propanaminium, N-(carboxymethyl)-N,N-dimethyl-3-(((3,3,4,4,5,5,6,6,7,7,8,8,8-tridecafluorooctyl)sulfonyl)amino)-, inner salt
Name: 2-[dimethyl-[3-(3,3,4,4,5,5,6,6,7,7,8,8,8-tridecafluorooctylsulfonylamino)propyl]azaniumyl]acetate
Formula: C15H19F13N2O4S
Exact mass: 570.085794948
SMILES: C[N+](C)(CCCNS(=O)(=O)CCC(C(C(C(C(C(F)(F)F)(F)F)(F)F)(F)F)(F)F)(F)F)CC(=O)[O-]
InChI: InChI=1S/C15H19F13N2O4S/c1-30(2,8-9(31)32)6-3-5-29-35(33,34)7-4-10(16,17)11(18,19)12(20,21)13(22,23)14(24,25)15(26,27)28/h29H,3-8H2,1-2H3
Instrument: Exploris 240 Orbitrap Thermo Scientific
Instrument type: LC-ESI-QFT
Ms type: MS2
Ion mode: NEGATIVE
Ionization: ESI
Fragmentation mode: HCD
Collision energy: 60 % (nominal)
Resolution: 17500
Column name: XBridge C18 3.5um, 2.1x50mm, Waters
Retention time: 10.997 min
Base peak: 569.0784
Precursor m/z: 569.0785
Precursor type: [M-H]-
m/z	relative intensity	assigned
63.9624	845	O2S-
64.9703	999	HO2S-
82.9609	272	FO2S-
91.9811	158	CH2NO2S-
92.9891	19	CH3NO2S-
120.0125	91	C3H6NO2S-
149.0387	15	C4H9N2O2S-
165.0702	8	C5H13N2O2S-
216.9886	40	C7F7-
228.9888	22	F7H4N2O2S-
242.0035	49	C5H7F5O3S-
262.0099	32	C11H2F6N-
266.986	271	C8F9-
286.9927	85	C8HF10-
