Mass spectrum: Trimebutine; LC-ESI-QFT; MS2; CE: 120%; R=17500; [M+H]+
Name: Trimebutine
Name: [2-(dimethylamino)-2-phenylbutyl] 3,4,5-trimethoxybenzoate
Formula: C22H29NO5
Exact mass: 387.204573028
SMILES: CCC(COC(=O)C1=CC(=C(C(=C1)OC)OC)OC)(C2=CC=CC=C2)N(C)C
InChI: InChI=1S/C22H29NO5/c1-7-22(23(2)3,17-11-9-8-10-12-17)15-28-21(24)16-13-18(25-4)20(27-6)19(14-16)26-5/h8-14H,7,15H2,1-6H3
Instrument: Exploris 240 Orbitrap Thermo Scientific
Instrument type: LC-ESI-QFT
Ms type: MS2
Ion mode: POSITIVE
Ionization: ESI
Fragmentation mode: HCD
Collision energy: 120 % (nominal)
Resolution: 17500
Column name: XBridge C18 3.5um, 2.1x50mm, Waters
Retention time: 6.755 min
Base peak: 388.2118
Precursor m/z: 388.2118
Precursor type: [M+H]+
m/z	relative intensity	assigned
51.0229	75	C4H3+
53.0386	486	C4H5+
55.0179	25	C3H3O+
64.0309	36	C5H4+
65.0386	304	C5H5+
66.0099	22	C4H2O+
66.0464	109	C5H6+
67.0543	51	C5H7+
68.0259	21	C4H4O+
76.031	17	C6H4+
77.0385	291	C6H5+
78.0467	47	C6H6+
79.0178	26	C5H3O+
79.0541	74	C6H7+
81.0335	344	C5H5O+
91.0542	999	C7H7+
92.0257	78	C6H4O+
93.0338	42	C6H5O+
94.0049	25	C5H2O2+
94.0413	54	C6H6O+
95.0493	134	C6H7O+
96.0204	20	C5H4O2+
103.0544	15	C8H7+
107.0129	135	C6H3O2+
108.0205	18	C6H4O2+
109.0284	143	C6H5O2+
109.0651	24	C7H9O+
111.0444	56	C6H7O2+
115.0543	119	C9H7+
116.0622	83	C9H8+
121.0284	126	C7H5O2+
122.0366	60	C7H6O2+
123.0444	20	C7H7O2+
124.0524	15	C7H8O2+
128.0622	50	C10H8+
137.0234	141	C7H5O3+
139.0396	33	C7H7O3+
151.039	100	C8H7O3+
