Mass spectrum: Acetochlor; LC-ESI-QFT; MS2; CE: 120%; R=15000; [M+H]+
Name: Acetochlor
Name: 2-chloro-N-(ethoxymethyl)-N-(2-ethyl-6-methylphenyl)acetamide
Formula: C14H20ClNO2
Exact mass: 269.1182566
SMILES: CCOCN(C(=O)CCl)C1=C(CC)C=CC=C1C
InChI: InChI=1S/C14H20ClNO2/c1-4-12-8-6-7-11(3)14(12)16(10-18-5-2)13(17)9-15/h6-8H,4-5,9-10H2,1-3H3
Instrument: Q Exactive Plus
Instrument type: LC-ESI-QFT
Ms type: MS2
Ion mode: POSITIVE
Ionization: ESI
Fragmentation mode: HCD
Collision energy: 120 % (nominal)
Resolution: 15000
Column name: XBridge C18 3.5um, 2.1x50mm, Waters
Retention time: 10.338 min
Base peak: 224.0838
Precursor m/z: 270.1255
Precursor type: [M+H]+
Precursor intensity: 108840014.11
m/z	relative intensity	assigned
79.0542	35	C6H7+
91.0543	435	C7H7+
106.0653	118	C7H8N+
115.0543	177	C9H7+
117.0573	444	C8H7N+
117.07	35	C9H9+
118.0652	299	C8H8N+
130.0656	98	C9H8N+
132.0809	999	C9H10N+
133.0886	341	C9H11N+
