Mass spectrum: Tropicamide; LC-ESI-QFT; MS2; CE: 90%; R=15000; [M+H]+
Name: Tropicamide
Name: N-ethyl-3-hydroxy-2-phenyl-N-(pyridin-4-ylmethyl)propanamide
Formula: C17H20N2O2
Exact mass: 284.1524779
SMILES: CCN(CC1=CC=NC=C1)C(=O)C(CO)C2=CC=CC=C2
InChI: InChI=1S/C17H20N2O2/c1-2-19(12-14-8-10-18-11-9-14)17(21)16(13-20)15-6-4-3-5-7-15/h3-11,16,20H,2,12-13H2,1H3
Instrument: Exploris 240 Thermo Scientific
Instrument type: LC-ESI-QFT
Ms type: MS2
Ion mode: POSITIVE
Ionization: ESI
Fragmentation mode: HCD
Collision energy: 90 % (nominal)
Resolution: 15000
Column name: XBridge C18 3.5um, 2.1x50mm, Waters
Retention time: 3.452 min
Base peak: 285.1595
Precursor m/z: 285.1598
Precursor type: [M+H]+
m/z	relative intensity	assigned
58.0652	98	C3H8N+
65.0387	31	C5H5+
77.0388	21	C6H5+
79.0417	42	C5H5N+
79.0542	74	C6H7+
80.0495	642	C5H6N+
91.0543	226	C7H7+
92.0496	72	C6H6N+
93.0573	999	C6H7N+
94.0652	38	C6H8N+
95.0493	15	C6H7O+
103.0542	608	C8H7+
106.065	20	C7H8N+
107.0604	645	C6H7N2+
108.0682	178	C6H8N2+
118.0648	51	C8H8N+
120.0683	26	C7H8N2+
121.065	53	C8H9O+
135.0916	156	C8H11N2+
182.0968	32	C13H12N+
