Mass spectrum: 1,3,7-Trimethyluric acid; LC-ESI-QFT; MS2; CE: 120%; R=17500; [M+H]+
Name: 1,3,7-Trimethyluric acid
Name: 1,3,7-trimethyl-9H-purine-2,6,8-trione
Formula: C8H10N4O3
Exact mass: 210.0752902
SMILES: CN1C2=C(NC1=O)N(C(=O)N(C2=O)C)C
InChI: InChI=1S/C8H10N4O3/c1-10-4-5(9-7(10)14)11(2)8(15)12(3)6(4)13/h1-3H3,(H,9,14)
Instrument: Exploris 240 Orbitrap Thermo Scientific
Instrument type: LC-ESI-QFT
Ms type: MS2
Ion mode: POSITIVE
Ionization: ESI
Fragmentation mode: HCD
Collision energy: 120 % (nominal)
Resolution: 17500
Column name: XBridge C18 3.5um, 2.1x50mm, Waters
Retention time: 2.602 min
Base peak: 211.0825
Precursor m/z: 211.0826
Precursor type: [M+H]+
m/z	relative intensity	assigned
53.0136	76	C2HN2+
54.034	33	C3H4N+
55.0292	84	C2H3N2+
56.0131	46	C2H2NO+
56.0369	527	C2H4N2+
56.0495	296	C3H6N+
57.0447	638	C2H5N2+
58.0288	99	C2H4NO+
67.0291	408	C3H3N2+
68.0369	999	C3H4N2+
69.0084	73	C2HN2O+
69.021	86	C3H3NO+
69.0446	141	C3H5N2+
71.0604	60	C3H7N2+
81.0451	43	C4H5N2+
82.0527	91	C4H6N2+
83.0242	137	C3H3N2O+
83.0478	56	C3H5N3+
83.0604	197	C4H7N2+
84.0317	122	C3H4N2O+
85.0397	372	C3H5N2O+
98.0477	42	C4H6N2O+
99.0552	29	C4H7N2O+
110.0351	97	C4H4N3O+
111.0431	50	C4H5N3O+
124.0507	82	C5H6N3O+
137.0457	84	C5H5N4O+
138.0297	123	C5H4N3O2+
139.0377	168	C5H5N3O2+
