Mass spectrum: Clofibrate; LC-ESI-QFT; MS2; CE: 90%; R=15000; [M+H]+
Name: Clofibrate
Name: ethyl 2-(4-chlorophenoxy)-2-methylpropanoate
Formula: C12H15ClO3
Exact mass: 242.070972
SMILES: CCOC(=O)C(C)(C)OC1=CC=C(Cl)C=C1
InChI: InChI=1S/C12H15ClO3/c1-4-15-11(14)12(2,3)16-10-7-5-9(13)6-8-10/h5-8H,4H2,1-3H3
Instrument: Q Exactive Plus
Instrument type: LC-ESI-QFT
Ms type: MS2
Ion mode: POSITIVE
Ionization: ESI
Fragmentation mode: HCD
Collision energy: 90 % (nominal)
Resolution: 15000
Column name: XBridge C18 3.5um, 2.1x50mm, Waters
Retention time: 11.449 min
Base peak: 243.0784
Precursor m/z: 243.0782
Precursor type: [M+H]+
Precursor intensity: 61114957.02
m/z	relative intensity	assigned
59.0491	999	C3H7O+
75.0229	16	C6H3+
77.0385	27	C6H5+
94.0414	24	C6H6O+
95.0491	145	C6H7O+
105.07	16	C8H9+
113.0152	123	C6H6Cl+
116.062	31	C9H8+
129.0103	50	C6H6ClO+
141.0102	568	C7H6ClO+
144.057	15	C10H8O+
