Mass spectrum: (E)-1-(2-Chloro-1,3-thiazol-5-yl methyl)-3-methyl-2-nitroguanidine; LC-ESI-QFT; MS2; CE: 90%; R=15000; [M+H]+
Name: (E)-1-(2-Chloro-1,3-thiazol-5-yl methyl)-3-methyl-2-nitroguanidine
Name: 1-[(2-chloro-1,3-thiazol-5-yl)methyl]-2-methyl-3-nitroguanidine
Formula: C6H8ClN5O2S
Exact mass: 249.0087232
SMILES: CN\C(NCC1=CN=C(Cl)S1)=N/[N+]([O-])=O
InChI: InChI=1S/C6H8ClN5O2S/c1-8-6(11-12(13)14)10-3-4-2-9-5(7)15-4/h2H,3H2,1H3,(H2,8,10,11)
Instrument: Q Exactive Plus
Instrument type: LC-ESI-QFT
Ms type: MS2
Ion mode: POSITIVE
Ionization: ESI
Fragmentation mode: HCD
Collision energy: 90 % (nominal)
Resolution: 15000
Column name: XBridge C18 3.5um, 2.1x50mm, Waters
Retention time: 4.165 min
Base peak: 250.016
Precursor m/z: 250.016
Precursor type: [M+H]+
Precursor intensity: 221153798.4
m/z	relative intensity	assigned
54.0338	205	C3H4N+
55.0416	51	C3H5N+
56.0495	30	C3H6N+
57.0447	242	C2H5N2+
57.9871	14	C2H2S+
58.995	67	C2H3S+
59.9902	33	CH2NS+
61.9792	24	CHClN+
63.9947	12	CH3ClN+
68.0369	27	C3H4N2+
68.0493	17	C4H6N+
69.0447	159	C3H5N2+
69.0573	19	C4H7N+
70.995	693	C3H3S+
71.9902	20	C2H2NS+
78.9402	50	CClS+
81.0448	36	C4H5N2+
82.0525	35	C4H6N2+
83.0604	91	C4H7N2+
83.9903	17	C3H2NS+
86.0058	484	C3H4NS+
96.0556	276	C4H6N3+
97.0397	31	C4H5N2O+
98.0058	28	C4H4NS+
98.0712	29	C4H8N3+
99.0012	32	C3H3N2S+
101.0167	16	C3H5N2S+
108.0559	35	C5H6N3+
110.0713	680	C5H8N3+
111.0791	522	C5H9N3+
113.0167	978	C4H5N2S+
119.967	83	C3H3ClNS+
126.0119	41	C4H4N3S+
131.9669	999	C4H3ClNS+
132.9746	84	C4H4ClNS+
142.0432	32	C5H8N3S+
146.9777	58	C4H4ClN2S+
153.0231	31	C5H5N4S+
169.0543	17	C6H9N4S+
