Mass spectrum: Hydroxytorasemide; LC-ESI-QFT; MS2; CE: 75%; R=17500; [M-H]-
Name: Hydroxytorasemide
Name: Torasemide metabolite M1
Name: 1-[4-[3-(hydroxymethyl)anilino]pyridin-3-yl]sulfonyl-3-propan-2-ylurea
Formula: C16H20N4O4S
Exact mass: 364.1205261
SMILES: CC(C)NC(=O)NS(=O)(=O)C1=C(C=CN=C1)NC2=CC=CC(=C2)CO
InChI: InChI=1S/C16H20N4O4S/c1-11(2)18-16(22)20-25(23,24)15-9-17-7-6-14(15)19-13-5-3-4-12(8-13)10-21/h3-9,11,21H,10H2,1-2H3,(H,17,19)(H2,18,20,22)
Instrument: Exploris 240 Orbitrap Thermo Scientific
Instrument type: LC-ESI-QFT
Ms type: MS2
Ion mode: NEGATIVE
Ionization: ESI
Fragmentation mode: HCD
Collision energy: 75 % (nominal)
Resolution: 17500
Column name: XBridge C18 3.5um, 2.1x50mm, Waters
Retention time: 4.137 min
Base peak: 363.113
Precursor m/z: 363.1132
Precursor type: [M-H]-
m/z	relative intensity	assigned
57.9757	112	CNS-
60.9753	103	CHOS-
61.9706	25	NOS-
77.9655	650	NO2S-
78.9732	53	HNO2S-
90.0351	55	C6H4N-
91.0301	145	C5H3N2-
92.038	787	C5H4N2-
93.0459	323	C5H5N2-
108.0329	841	C5H4N2O-
108.0568	129	C5H6N3-
109.0405	25	C5H5N2O-
121.0532	244	C7H7NO-
123.0027	27	C5H3N2S-
125.0184	44	C5H5N2S-
135.0022	98	C6H3N2S-
150.9977	141	C6H3N2OS-
154.9922	31	C5H3N2O2S-
155.9997	106	C5H4N2O2S-
157.0079	54	C5H5N2O2S-
167.0619	130	C11H7N2-
168.0568	146	C10H6N3-
169.0772	257	C11H9N2-
179.062	29	C12H7N2-
181.0646	353	C11H7N3-
182.0723	381	C11H8N3-
184.0881	366	C11H10N3-
193.0648	122	C12H7N3-
194.0722	999	C6H14N2O3S-
196.0525	37	C11H6N3O-
197.0727	375	C6H15NO4S-
199.0875	138	C12H11N2O-
209.0601	47	C12H7N3O-
210.0672	95	C12H8N3O-
211.0754	331	C12H9N3O-
212.0286	101	C11H6N3S-
212.0829	130	C12H10N3O-
242.0401	45	C14H10O2S-
260.0493	39	C12H10N3O2S-
278.0608	300	C12H12N3O3S-
