Mass spectrum: Febuxostat; LC-ESI-QFT; MS2; CE: 120%; R=15000; [M+H]+
Name: Febuxostat
Name: 2-[3-cyano-4-(2-methylpropoxy)phenyl]-4-methyl-1,3-thiazole-5-carboxylic acid
Formula: C16H16N2O3S
Exact mass: 316.0881634
SMILES: CC1=C(SC(=N1)C2=CC(=C(C=C2)OCC(C)C)C#N)C(=O)O
InChI: InChI=1S/C16H16N2O3S/c1-9(2)8-21-13-5-4-11(6-12(13)7-17)15-18-10(3)14(22-15)16(19)20/h4-6,9H,8H2,1-3H3,(H,19,20)
Instrument: Q Exactive Plus
Instrument type: LC-ESI-QFT
Ms type: MS2
Ion mode: POSITIVE
Ionization: ESI
Fragmentation mode: HCD
Collision energy: 120 % (nominal)
Resolution: 15000
Column name: XBridge C18 3.5um, 2.1x50mm, Waters
Retention time: 11.644 min
Base peak: 317.0954
Precursor m/z: 317.0954
Precursor type: [M+H]+
Precursor intensity: 288937567.42
m/z	relative intensity	assigned
51.0229	58	C4H3+
57.9871	24	C2H2S+
58.9949	40	C2H3S+
59.9664	321	COS+
62.0152	27	C5H2+
63.0229	465	C5H3+
68.9792	25	C3HS+
69.9872	25	C3H2S+
70.995	900	C3H3S+
72.0028	133	C3H4S+
73.0106	305	C3H5S+
75.0227	41	C6H3+
76.0306	33	C6H4+
77.0384	35	C6H5+
81.0335	83	C5H5O+
83.0127	44	C4H3O2+
89.0384	30	C7H5+
90.0338	999	C6H4N+
91.0543	112	C7H7+
100.018	49	C7H2N+
102.0338	123	C7H4N+
103.0415	47	C7H5N+
106.995	32	C6H3S+
116.0493	35	C8H6N+
117.0447	152	C7H5N2+
118.0286	196	C7H4NO+
118.0649	69	C8H8N+
121.0105	52	C7H5S+
122.0059	32	C6H4NS+
128.0495	21	C9H6N+
129.0443	16	C8H5N2+
134.0057	52	C7H4NS+
145.0396	723	C8H5N2O+
162.0006	176	C8H4NOS+
