Mass spectrum: Indoxacarb; LC-ESI-QFT; MS2; CE: 150%; R=15000; [M+H]+
Name: Indoxacarb
Name: methyl (4aS)-7-chloro-2-[methoxycarbonyl-[4-(trifluoromethoxy)phenyl]carbamoyl]-3,5-dihydroindeno[1,2-e][1,3,4]oxadiazine-4a-carboxylate
Formula: C22H17ClF3N3O7
Exact mass: 527.0707122
SMILES: COC(=O)N(C(=O)N1CO[C@]2(CC3=C(C=CC(Cl)=C3)C2=N1)C(=O)OC)C1=CC=C(OC(F)(F)F)C=C1
InChI: InChI=1S/C22H17ClF3N3O7/c1-33-18(30)21-10-12-9-13(23)3-8-16(12)17(21)27-28(11-35-21)19(31)29(20(32)34-2)14-4-6-15(7-5-14)36-22(24,25)26/h3-9H,10-11H2,1-2H3/t21-/m0/s1
Instrument: Q Exactive Plus
Instrument type: LC-ESI-QFT
Ms type: MS2
Ion mode: POSITIVE
Ionization: ESI
Fragmentation mode: HCD
Collision energy: 150 % (nominal)
Resolution: 15000
Column name: XBridge C18 3.5um, 2.1x50mm, Waters
Retention time: 12.982 min
Base peak: 528.0783
Precursor m/z: 528.078
Precursor type: [M+H]+
Precursor intensity: 66716548.9
m/z	relative intensity	assigned
50.0151	425	C4H2+
51.023	825	C4H3+
52.0182	59	C3H2N+
52.0307	32	C4H4+
53.0385	61	C4H5+
56.0131	346	C2H2NO+
57.0135	21	C3H2F+
61.0074	59	C5H+
62.0152	163	C5H2+
63.0229	568	C5H3+
64.0182	57	C4H2N+
65.0386	97	C5H5+
66.0464	33	C5H6+
68.9947	999	CF3+
72.9839	318	C3H2Cl+
74.0151	388	C6H2+
75.0229	729	C6H3+
76.018	50	C5H2N+
76.0308	100	C6H4+
77.0024	52	C5HO+
77.0385	79	C6H5+
78.0338	939	C5H4N+
78.0464	86	C6H6+
86.0151	46	C7H2+
87.0229	153	C7H3+
88.0183	143	C6H2N+
88.0307	196	C7H4+
89.0386	688	C7H5+
90.0342	25	C6H4N+
90.0463	103	C7H6+
91.0542	36	C7H7+
95.0491	179	C6H7O+
96.0443	84	C5H6NO+
96.984	131	C5H2Cl+
98.0152	218	C8H2+
98.9997	89	C5H4Cl+
99.0229	402	C8H3+
100.0182	284	C7H2N+
100.0307	118	C8H4+
101.0388	74	C8H5+
102.0464	211	C8H6+
105.0448	40	C6H5N2+
106.0288	294	C6H4NO+
113.0386	331	C9H5+
114.0339	258	C8H4N+
114.0462	77	C4H5FN3+
115.0422	70	C8H5N+
115.0542	406	C9H7+
118.0289	17	C7H4NO+
119.0491	81	C8H7O+
122.9996	369	C7H4Cl+
126.0338	26	C9H4N+
126.0464	50	C10H6+
127.0417	236	C9H5N+
129.0449	101	C8H5N2+
132.0569	90	C9H8O+
136.0075	156	C8H5Cl+
140.0495	57	C10H6N+
150.0104	34	C8H5ClN+
