Mass spectrum: 4-Hydroxybenzaldehyde; LC-ESI-QFT; MS2; CE: 150%; R=17500; [M+H]+
Name: 4-Hydroxybenzaldehyde
Formula: C7H6O2
Exact mass: 122.0367794
SMILES: C1=CC(=CC=C1C=O)O
InChI: InChI=1S/C7H6O2/c8-5-6-1-3-7(9)4-2-6/h1-5,9H
Instrument: Exploris 240 Orbitrap Thermo Scientific
Instrument type: LC-ESI-QFT
Ms type: MS2
Ion mode: POSITIVE
Ionization: ESI
Fragmentation mode: HCD
Collision energy: 150 % (nominal)
Resolution: 17500
Column name: XBridge C18 3.5um, 2.1x50mm, Waters
Retention time: 3.323 min
Base peak: 132.9582
Precursor m/z: 123.0441
Precursor type: [M+H]+
m/z	relative intensity	assigned
41.0385	69	C3H5+
50.0152	14	C4H2+
51.0229	999	C4H3+
53.0385	101	C4H5+
55.0178	59	C3H3O+
59.0491	5	C3H7O+
65.0385	90	C5H5+
66.0463	18	C5H6+
67.0542	46	C5H7+
77.0385	769	C6H5+
81.0333	7	C5H5O+
94.0414	33	C6H6O+
95.0491	309	C6H7O+
