Mass spectrum: 5-Fluorocytosine; LC-ESI-QFT; MS2; CE: 60%; R=17500; [M-H]-
Name: 5-Fluorocytosine
Name: Flucytosine
Name: 6-amino-5-fluoro-1H-pyrimidin-2-one
Formula: C4H4FN3O
Exact mass: 129.03384
SMILES: C1=NC(=O)NC(=C1F)N
InChI: InChI=1S/C4H4FN3O/c5-2-1-7-4(9)8-3(2)6/h1H,(H3,6,7,8,9)
Instrument: Exploris 240 Orbitrap Thermo Scientific
Instrument type: LC-ESI-QFT
Ms type: MS2
Ion mode: NEGATIVE
Ionization: ESI
Fragmentation mode: HCD
Collision energy: 60 % (nominal)
Resolution: 17500
Column name: XBridge C18 3.5um, 2.1x50mm, Waters
Retention time: 0.898 min
Base peak: 112.9857
Precursor m/z: 128.0266
Precursor type: [M-H]-
m/z	relative intensity	assigned
41.9985	386	CNO-
58.0098	127	C2HFN-
85.0208	999	C3H2FN2-
128.0269	142	C4H3FN3O-
