Mass spectrum: Losartan-carboxylic acid; LC-ESI-QFT; MS2; CE: 90%; R=17500; [M+H]+
Name: Losartan-carboxylic acid
Name: Losartan carboxylic acid
Name: 2-butyl-5-chloro-3-[[4-[2-(2H-tetrazol-5-yl)phenyl]phenyl]methyl]imidazole-4-carboxylic acid
Formula: C22H21ClN6O2
Exact mass: 436.1414516
SMILES: CCCCC1=NC(=C(N1CC2=CC=C(C=C2)C3=CC=CC=C3C4=NNN=N4)C(=O)O)Cl
InChI: InChI=1S/C22H21ClN6O2/c1-2-3-8-18-24-20(23)19(22(30)31)29(18)13-14-9-11-15(12-10-14)16-6-4-5-7-17(16)21-25-27-28-26-21/h4-7,9-12H,2-3,8,13H2,1H3,(H,30,31)(H,25,26,27,28)
Instrument: Exploris 240 Orbitrap Thermo Scientific
Instrument type: LC-ESI-QFT
Ms type: MS2
Ion mode: POSITIVE
Ionization: ESI
Fragmentation mode: HCD
Collision energy: 90 % (nominal)
Resolution: 17500
Column name: XBridge C18 3.5um, 2.1x50mm, Waters
Retention time: 8.222 min
Base peak: 437.1482
Precursor m/z: 437.1487
Precursor type: [M+H]+
m/z	relative intensity	assigned
51.0229	27	C4H3+
67.0418	24	C4H5N+
77.0386	157	C6H5+
80.0493	67	C5H6N+
91.0545	28	C7H7+
95.0493	39	C6H7O+
105.0448	66	C6H5N2+
115.0544	69	C9H7+
116.0495	14	C8H6N+
127.0546	50	C10H7+
128.0621	14	C10H8+
129.0443	22	C8H5N2+
138.0465	13	C11H6+
139.0545	38	C11H7+
140.0496	190	C10H6N+
140.0626	26	C11H8+
141.0571	21	C10H7N+
141.0698	18	C11H9+
145.0653	17	C10H9O+
151.0541	176	C12H7+
152.062	903	C12H8+
153.0699	633	C12H9+
157.0533	28	C7H10ClN2+
163.0542	283	C13H7+
166.0647	55	C12H8N+
167.0729	69	C12H9N+
168.0685	53	C11H8N2+
176.0618	52	C14H8+
180.0806	481	C13H10N+
181.077	17	C11H14Cl+
185.0483	13	C8H10ClN2O+
190.0651	999	C14H8N+
192.0682	411	C13H8N2+
203.0587	17	C8H12ClN2O2+
205.0761	828	C14H9N2+
206.0837	207	C14H10N2+
207.0919	15	C14H11N2+
