Mass spectrum: 4-Hydroxybenzaldehyde; LC-ESI-QFT; MS2; CE: 15%; R=17500; [M+H]+
Name: 4-Hydroxybenzaldehyde
Formula: C7H6O2
Exact mass: 122.0367794
SMILES: C1=CC(=CC=C1C=O)O
InChI: InChI=1S/C7H6O2/c8-5-6-1-3-7(9)4-2-6/h1-5,9H
Instrument: Exploris 240 Orbitrap Thermo Scientific
Instrument type: LC-ESI-QFT
Ms type: MS2
Ion mode: POSITIVE
Ionization: ESI
Fragmentation mode: HCD
Collision energy: 15 % (nominal)
Resolution: 17500
Column name: XBridge C18 3.5um, 2.1x50mm, Waters
Retention time: 3.323 min
Base peak: 132.9582
Precursor m/z: 123.0441
Precursor type: [M+H]+
m/z	relative intensity	assigned
95.0491	46	C6H7O+
123.0439	999	C7H7O2+
