Mass spectrum: Melatonin; LC-ESI-QFT; MS2; CE: 30%; R=15000; [M+H]+
Name: Melatonin
Name: N-[2-(5-methoxy-1H-indol-3-yl)ethyl]ethanamide
Formula: C13H16N2O2
Exact mass: 232.1211778
SMILES: CC(=O)NCCC1=CNC2=C1C=C(C=C2)OC
InChI: InChI=1S/C13H16N2O2/c1-9(16)14-6-5-10-8-15-13-4-3-11(17-2)7-12(10)13/h3-4,7-8,15H,5-6H2,1-2H3,(H,14,16)
Instrument: Exploris 240 Thermo Scientific
Instrument type: LC-ESI-QFT
Ms type: MS2
Ion mode: POSITIVE
Ionization: ESI
Fragmentation mode: HCD
Collision energy: 30 % (nominal)
Resolution: 15000
Column name: XBridge C18 3.5um, 2.1x50mm, Waters
Retention time: 4.312 min
Base peak: 233.128
Precursor m/z: 233.1285
Precursor type: [M+H]+
m/z	relative intensity	assigned
117.0699	10	C9H9+
131.0729	47	C9H9N+
142.0648	18	C10H8N+
143.0729	105	C10H9N+
144.0808	26	C10H10N+
159.0678	359	C10H9NO+
174.0912	999	C11H12NO+
