Mass spectrum: Benoxacor; LC-ESI-QFT; MS2; CE: 75%; R=15000; [M+H]+
Name: Benoxacor
Name: 2,2-dichloro-1-(3-methyl-2,3-dihydro-1,4-benzoxazin-4-yl)ethanone
Formula: C11H11Cl2NO2
Exact mass: 259.016684
SMILES: CC1COC2=CC=CC=C2N1C(=O)C(Cl)Cl
InChI: InChI=1S/C11H11Cl2NO2/c1-7-6-16-9-5-3-2-4-8(9)14(7)11(15)10(12)13/h2-5,7,10H,6H2,1H3
Instrument: Exploris 240 Thermo Scientific
Instrument type: LC-ESI-QFT
Ms type: MS2
Ion mode: POSITIVE
Ionization: ESI
Fragmentation mode: HCD
Collision energy: 75 % (nominal)
Resolution: 15000
Column name: XBridge C18 3.5um, 2.1x50mm, Waters
Retention time: 8.025 min
Base peak: 260.0237
Precursor m/z: 260.024
Precursor type: [M+H]+
m/z	relative intensity	assigned
59.0492	30	C3H7O+
82.945	193	CHCl2+
92.0495	40	C6H6N+
106.0651	49	C7H8N+
108.0445	125	C6H6NO+
109.0523	77	C6H7NO+
110.0602	26	C6H8NO+
120.0444	788	C7H6NO+
132.0446	44	C8H6NO+
132.0807	82	C9H10N+
134.0601	999	C8H8NO+
149.0835	389	C9H11NO+
150.0914	84	C9H12NO+
160.0758	110	C10H10NO+
166.0055	105	C8H5ClNO+
172.0758	24	C11H10NO+
