Mass spectrum: Indoxacarb; LC-ESI-QFT; MS2; CE: 60%; R=15000; [M+H]+
Name: Indoxacarb
Name: methyl (4aS)-7-chloro-2-[methoxycarbonyl-[4-(trifluoromethoxy)phenyl]carbamoyl]-3,5-dihydroindeno[1,2-e][1,3,4]oxadiazine-4a-carboxylate
Formula: C22H17ClF3N3O7
Exact mass: 527.0707122
SMILES: COC(=O)N(C(=O)N1CO[C@]2(CC3=C(C=CC(Cl)=C3)C2=N1)C(=O)OC)C1=CC=C(OC(F)(F)F)C=C1
InChI: InChI=1S/C22H17ClF3N3O7/c1-33-18(30)21-10-12-9-13(23)3-8-16(12)17(21)27-28(11-35-21)19(31)29(20(32)34-2)14-4-6-15(7-5-14)36-22(24,25)26/h3-9H,10-11H2,1-2H3/t21-/m0/s1
Instrument: Q Exactive Plus
Instrument type: LC-ESI-QFT
Ms type: MS2
Ion mode: POSITIVE
Ionization: ESI
Fragmentation mode: HCD
Collision energy: 60 % (nominal)
Resolution: 15000
Column name: XBridge C18 3.5um, 2.1x50mm, Waters
Retention time: 12.982 min
Base peak: 528.0783
Precursor m/z: 528.078
Precursor type: [M+H]+
Precursor intensity: 66716548.9
m/z	relative intensity	assigned
56.0131	416	C2H2NO+
75.0441	19	C3H7O2+
90.0339	20	C6H4N+
95.0491	32	C6H7O+
104.0495	124	C7H6N+
106.0287	18	C6H4NO+
115.0542	33	C9H7+
116.0621	23	C9H8+
122.9996	34	C7H4Cl+
126.0465	15	C10H6+
127.0417	73	C9H5N+
128.0622	49	C10H8+
132.0444	53	C8H6NO+
134.0237	207	C7H4NO2+
142.0651	32	C10H8N+
149.0152	76	C9H6Cl+
150.0106	204	C8H5ClN+
152.0024	30	C8H5ClO+
155.0605	44	C10H7N2+
162.0105	369	C9H5ClN+
164.0026	17	C9H5ClO+
164.0259	24	ClF2H11O5+
165.0341	15	C9H8ClN+
166.0054	10	C8H5ClNO+
167.0259	77	C9H8ClO+
168.0211	318	C8H7ClNO+
175.0061	14	F3H6O7+
177.0339	26	C10H8ClN+
179.026	51	C10H8ClO+
180.0211	67	C9H7ClNO+
189.0214	76	C10H6ClN2+
190.0054	80	C10H5ClNO+
195.0211	33	C5H5F2N2O4+
203.0189	999	C8H4F3NO2+
208.016	13	C10H7ClNO2+
217.0165	14	C11H6ClN2O+
