Mass spectrum: Piperine; LC-ESI-QFT; MS2; CE: 90%; R=17500; [M+H]+
Name: Piperine
Name: Piperidine, 1-(5-(1,3-benzodioxol-5-yl)-1-oxo-2,4-pentadienyl)-
Name: 5-(1,3-benzodioxol-5-yl)-1-piperidin-1-ylpenta-2,4-dien-1-one
Formula: C17H19NO3
Exact mass: 285.1364935
SMILES: C1CCN(CC1)C(=O)C=CC=CC2=CC3=C(C=C2)OCO3
InChI: InChI=1S/C17H19NO3/c19-17(18-10-4-1-5-11-18)7-3-2-6-14-8-9-15-16(12-14)21-13-20-15/h2-3,6-9,12H,1,4-5,10-11,13H2
Instrument: Exploris 240 Orbitrap Thermo Scientific
Instrument type: LC-ESI-QFT
Ms type: MS2
Ion mode: POSITIVE
Ionization: ESI
Fragmentation mode: HCD
Collision energy: 90 % (nominal)
Resolution: 17500
Column name: XBridge C18 3.5um, 2.1x50mm, Waters
Retention time: 9.631 min
Base peak: 286.1434
Precursor m/z: 286.1438
Precursor type: [M+H]+
m/z	relative intensity	assigned
69.0698	70	C5H9+
77.0386	41	C6H5+
79.0541	31	C6H7+
81.0573	8	C5H7N+
84.0806	18	C5H10N+
86.0964	12	C5H12N+
91.0541	6	C7H7+
95.0493	5	C6H7O+
103.0543	34	C8H7+
105.0335	17	C7H5O+
115.0541	999	C9H7+
117.0698	19	C9H9+
122.0961	8	C8H12N+
135.044	194	C8H7O2+
143.049	244	C10H7O+
159.0441	38	C10H7O2+
171.0437	60	C11H7O2+
173.0596	16	C11H9O2+
201.0546	24	C12H9O3+
