Mass spectrum: Clodinafop-propargyl; LC-ESI-QFT; MS2; CE: 120%; R=15000; [M+H]+
Name: Clodinafop-propargyl
Name: 2-(4-((5-Chloro-3-fluoro-2-pyridinyl)oxy)phenoxy)propanoic acid 2-propyn-1-yl ester
Name: prop-2-ynyl 2-[4-(5-chloro-3-fluoropyridin-2-yl)oxyphenoxy]propanoate
Formula: C17H13ClFNO4
Exact mass: 349.0517138
SMILES: CC(C(=O)OCC#C)OC1=CC=C(C=C1)OC2=NC=C(C=C2F)Cl
InChI: InChI=1S/C17H13ClFNO4/c1-3-8-22-17(21)11(2)23-13-4-6-14(7-5-13)24-16-15(19)9-12(18)10-20-16/h1,4-7,9-11H,8H2,2H3
Instrument: Exploris 240 Thermo Scientific
Instrument type: LC-ESI-QFT
Ms type: MS2
Ion mode: POSITIVE
Ionization: ESI
Fragmentation mode: HCD
Collision energy: 120 % (nominal)
Resolution: 15000
Column name: XBridge C18 3.5um, 2.1x50mm, Waters
Retention time: 10.935 min
Base peak: 350.0585
Precursor m/z: 350.059
Precursor type: [M+H]+
m/z	relative intensity	assigned
51.0229	100	C4H3+
53.0387	69	C4H5+
55.0179	34	C3H3O+
57.0136	65	C3H2F+
63.0228	405	C5H3+
64.0306	160	C5H4+
65.0385	999	C5H5+
66.0464	31	C5H6+
74.015	38	C6H2+
75.0228	476	C6H3+
76.0309	59	C6H4+
77.0384	243	C6H5+
81.0334	148	C5H5O+
84.9841	34	C4H2Cl+
90.0337	45	C6H4N+
91.0541	934	C7H7+
92.0255	148	C6H4O+
94.0414	64	C6H6O+
95.0489	195	C6H7O+
102.0464	69	C8H6+
103.0543	61	C8H7+
109.9791	331	C5HClN+
119.0491	28	C8H7O+
128.0493	93	C9H6N+
129.9852	168	C5H2ClFN+
132.0365	159	C9H5F+
133.0325	32	C8H4FN+
139.0415	73	C10H5N+
147.9957	245	C8HFO2+
148.0558	31	C9H7FN+
149.0395	181	C9H6FO+
158.0396	312	C10H5FN+
159.0477	406	C10H6FN+
184.0557	42	C12H7FN+
