Mass spectrum: Tolterodine; LC-ESI-QFT; MS2; CE: 90%; R=15000; [M+H]+
Name: Tolterodine
Name: 2-[(1R)-3-[di(propan-2-yl)amino]-1-phenylpropyl]-4-methylphenol
Formula: C22H31NO
Exact mass: 325.2405646
SMILES: CC(C)N(CC[C@H](C1=CC=CC=C1)C1=C(O)C=CC(C)=C1)C(C)C
InChI: InChI=1S/C22H31NO/c1-16(2)23(17(3)4)14-13-20(19-9-7-6-8-10-19)21-15-18(5)11-12-22(21)24/h6-12,15-17,20,24H,13-14H2,1-5H3/t20-/m1/s1
Instrument: Exploris 240 Thermo Scientific
Instrument type: LC-ESI-QFT
Ms type: MS2
Ion mode: POSITIVE
Ionization: ESI
Fragmentation mode: HCD
Collision energy: 90 % (nominal)
Resolution: 15000
Column name: XBridge C18 3.5um, 2.1x50mm, Waters
Retention time: 6.330 min
Base peak: 326.2476
Precursor m/z: 326.2478
Precursor type: [M+H]+
m/z	relative intensity	assigned
53.0385	21	C4H5+
55.0179	70	C3H3O+
65.0388	33	C5H5+
72.0808	87	C4H10N+
77.0388	24	C6H5+
79.0543	25	C6H7+
91.0542	999	C7H7+
93.0699	159	C7H9+
95.0492	97	C6H7O+
103.0542	48	C8H7+
107.0491	44	C7H7O+
109.065	39	C7H9O+
115.0541	302	C9H7+
117.0698	315	C9H9+
119.0856	453	C9H11+
121.0648	577	C8H9O+
128.0623	18	C10H8+
129.0697	51	C10H9+
132.0569	90	C9H8O+
141.0699	99	C11H9+
147.0805	127	C10H11O+
153.07	63	C12H9+
154.0778	183	C12H10+
169.1013	68	C13H13+
178.0776	134	C14H10+
179.0854	153	C14H11+
181.0647	162	C13H9O+
182.0726	437	C13H10O+
197.0959	121	C14H13O+
202.0779	363	C16H10+
