Mass spectrum: Flufenacet; LC-ESI-QFT; MS2; CE: 90%; R=15000; [M+H]+
Name: Flufenacet
Name: N-(4-fluorophenyl)-N-propan-2-yl-2-[[5-(trifluoromethyl)-1,3,4-thiadiazol-2-yl]oxy]acetamide
Formula: C14H13F4N3O2S
Exact mass: 363.0664605
SMILES: CC(C)N(C(=O)COC1=NN=C(S1)C(F)(F)F)C1=CC=C(F)C=C1
InChI: InChI=1S/C14H13F4N3O2S/c1-8(2)21(10-5-3-9(15)4-6-10)11(22)7-23-13-20-19-12(24-13)14(16,17)18/h3-6,8H,7H2,1-2H3
Instrument: Q Exactive Plus
Instrument type: LC-ESI-QFT
Ms type: MS2
Ion mode: POSITIVE
Ionization: ESI
Fragmentation mode: HCD
Collision energy: 90 % (nominal)
Resolution: 15000
Column name: XBridge C18 3.5um, 2.1x50mm, Waters
Retention time: 10.445 min
Base peak: 364.0739
Precursor m/z: 364.0737
Precursor type: [M+H]+
Precursor intensity: 508954947.53
m/z	relative intensity	assigned
53.0386	46	C4H5+
71.0292	10	C4H4F+
75.0229	21	C6H3+
77.0386	28	C6H5+
83.0291	121	C5H4F+
95.0492	141	C6H7O+
96.037	81	C6H5F+
96.0443	19	C5H6NO+
97.0449	677	C6H6F+
104.0495	76	C7H6N+
105.0448	45	C6H5N2+
107.0292	39	C7H4F+
109.0449	455	C7H6F+
110.0403	35	C6H5FN+
112.0558	21	C6H7FN+
113.0397	85	C6H6FO+
115.0544	29	C9H7+
122.0399	10	C7H5FN+
123.0241	143	C7H4FO+
123.0352	71	C6H4FN2+
124.0558	999	C7H7FN+
132.0443	11	C8H6NO+
134.0399	16	C8H5FN+
135.0481	11	C8H6FN+
136.0558	41	C8H7FN+
137.0634	20	C8H8FN+
152.0508	56	C8H7FNO+
152.0867	27	C9H11FN+
