Mass spectrum: 4-Nitro-1,2-phenylenediamine; LC-ESI-QFT; MS2; CE: 120%; R=15000; [M+H]+
Name: 4-Nitro-1,2-phenylenediamine
Name: 4-Nitro-o-phenylenediamine
Name: 4-nitrobenzene-1,2-diamine
Formula: C6H7N3O2
Exact mass: 153.0538265
SMILES: NC1=C(N)C=C(C=C1)[N+]([O-])=O
InChI: InChI=1S/C6H7N3O2/c7-5-2-1-4(9(10)11)3-6(5)8/h1-3H,7-8H2
Instrument: Exploris 240 Thermo Scientific
Instrument type: LC-ESI-QFT
Ms type: MS2
Ion mode: POSITIVE
Ionization: ESI
Fragmentation mode: HCD
Collision energy: 120 % (nominal)
Resolution: 15000
Column name: XBridge C18 3.5um, 2.1x50mm, Waters
Retention time: 2.575 min
Base peak: 154.061
Precursor m/z: 154.0611
Precursor type: [M+H]+
m/z	relative intensity	assigned
53.0386	171	C4H5+
63.0229	153	C5H3+
80.0495	999	C5H6N+
81.0573	31	C5H7N+
90.0338	107	C6H4N+
107.0603	370	C6H7N2+
108.0443	79	C6H6NO+
