Mass spectrum: N-(3,4-Dichlorophenyl)propanamide; LC-ESI-QFT; MS2; CE: 150%; R=15000; [M+H]+
Name: N-(3,4-Dichlorophenyl)propanamide
Name: Propanil
Formula: C9H9Cl2NO
Exact mass: 217.0061193
SMILES: CCC(=O)NC1=CC=C(Cl)C(Cl)=C1
InChI: InChI=1S/C9H9Cl2NO/c1-2-9(13)12-6-3-4-7(10)8(11)5-6/h3-5H,2H2,1H3,(H,12,13)
Instrument: Q Exactive Plus
Instrument type: LC-ESI-QFT
Ms type: MS2
Ion mode: POSITIVE
Ionization: ESI
Fragmentation mode: HCD
Collision energy: 150 % (nominal)
Resolution: 15000
Column name: XBridge C18 3.5um, 2.1x50mm, Waters
Retention time: 9.088 min
Base peak: 218.0133
Precursor m/z: 218.0134
Precursor type: [M+H]+
Precursor intensity: 275493768.62
m/z	relative intensity	assigned
63.0228	61	C5H3+
64.0308	54	C5H4+
65.0385	999	C5H5+
72.9839	24	C3H2Cl+
91.0416	125	C6H5N+
92.0494	569	C6H6N+
98.9996	53	C5H4Cl+
100.0073	438	C5H5Cl+
110.06	62	C6H8NO+
127.0182	973	C6H6ClN+
