Mass spectrum: Prazosin; LC-ESI-QFT; MS2; CE: 90%; R=17500; [M+H]+
Name: Prazosin
Name: [4-(4-amino-6,7-dimethoxyquinazolin-2-yl)piperazin-1-yl]-(furan-2-yl)methanone
Formula: C19H21N5O4
Exact mass: 383.159354152
SMILES: COC1=C(C=C2C(=C1)C(=NC(=N2)N3CCN(CC3)C(=O)C4=CC=CO4)N)OC
InChI: InChI=1S/C19H21N5O4/c1-26-15-10-12-13(11-16(15)27-2)21-19(22-17(12)20)24-7-5-23(6-8-24)18(25)14-4-3-9-28-14/h3-4,9-11H,5-8H2,1-2H3,(H2,20,21,22)
Instrument: Exploris 240 Orbitrap Thermo Scientific
Instrument type: LC-ESI-QFT
Ms type: MS2
Ion mode: POSITIVE
Ionization: ESI
Fragmentation mode: HCD
Collision energy: 90 % (nominal)
Resolution: 17500
Column name: XBridge C18 3.5um, 2.1x50mm, Waters
Retention time: 4.835 min
Base peak: 384.1665
Precursor m/z: 384.1666
Precursor type: [M+H]+
m/z	relative intensity	assigned
67.0176	6	C4H3O+
70.0653	6	C4H8N+
94.0289	15	C5H4NO+
95.0128	999	C5H3O2+
106.0527	7	C6H6N2+
120.0447	17	C7H6NO+
138.055	39	C7H8NO2+
147.0317	7	C8H5NO2+
147.055	5	C8H7N2O+
160.0513	10	C8H6N3O+
161.0706	7	C9H9N2O+
164.0705	18	C9H10NO2+
174.0899	18	C9H10N4+
177.0658	23	C9H9N2O2+
186.067	5	C10H8N3O+
186.0892	6	C10H10N4+
188.0461	12	C9H6N3O2+
189.0661	10	C10H9N2O2+
191.0812	4	C10H11N2O2+
201.0772	8	C10H9N4O+
202.085	10	C10H10N4O+
203.0929	47	C10H11N4O+
204.0767	27	C10H10N3O2+
205.0719	18	C9H9N4O2+
214.0611	8	C11H8N3O2+
217.072	14	C10H9N4O2+
229.0728	26	C11H9N4O2+
231.0877	213	C11H11N4O2+
233.1032	8	C11H13N4O2+
245.1036	5	C12H13N4O2+
247.1196	5	C12H15N4O2+
257.1042	7	C15H15NO3+
350.1241	7	C18H16N5O3+
