Mass spectrum: Ethyl 2-cyano-3,3-diphenylacrylate; LC-ESI-QFT; MS2; CE: 15%; R=15000; [M+H]+
Name: Ethyl 2-cyano-3,3-diphenylacrylate
Name: ethyl 2-cyano-3,3-diphenylprop-2-enoate
Formula: C18H15NO2
Exact mass: 277.1102787
SMILES: CCOC(=O)C(C#N)=C(C1=CC=CC=C1)C1=CC=CC=C1
InChI: InChI=1S/C18H15NO2/c1-2-21-18(20)16(13-19)17(14-9-5-3-6-10-14)15-11-7-4-8-12-15/h3-12H,2H2,1H3
Instrument: Exploris 240 Thermo Scientific
Instrument type: LC-ESI-QFT
Ms type: MS2
Ion mode: POSITIVE
Ionization: ESI
Fragmentation mode: HCD
Collision energy: 15 % (nominal)
Resolution: 15000
Column name: XBridge C18 3.5um, 2.1x50mm, Waters
Retention time: 9.995 min
Base peak: 278.1172
Precursor m/z: 278.1176
Precursor type: [M+H]+
m/z	relative intensity	assigned
202.0775	89	C16H10+
232.0755	309	C16H10NO+
250.0861	999	C16H12NO2+
278.1174	845	C18H16NO2+
