Mass spectrum: Letrozole; LC-ESI-QFT; MS2; CE: 60%; R=15000; [M+H]+
Name: Letrozole
Name: 4-[(4-cyanophenyl)-(1,2,4-triazol-1-yl)methyl]benzonitrile
Formula: C17H11N5
Exact mass: 285.1014454
SMILES: C1=CC(=CC=C1C#N)C(C2=CC=C(C=C2)C#N)N3C=NC=N3
InChI: InChI=1S/C17H11N5/c18-9-13-1-5-15(6-2-13)17(22-12-20-11-21-22)16-7-3-14(10-19)4-8-16/h1-8,11-12,17H
Instrument: Exploris 240 Thermo Scientific
Instrument type: LC-ESI-QFT
Ms type: MS2
Ion mode: POSITIVE
Ionization: ESI
Fragmentation mode: HCD
Collision energy: 60 % (nominal)
Resolution: 15000
Column name: XBridge C18 3.5um, 2.1x50mm, Waters
Retention time: 5.301 min
Base peak: 286.1083
Precursor m/z: 286.1087
Precursor type: [M+H]+
m/z	relative intensity	assigned
63.0229	40	C5H3+
90.0336	46	C6H4N+
115.0545	36	C9H7+
140.0493	309	C10H6N+
150.0461	92	C12H6+
153.0573	51	C11H7N+
162.047	47	C13H6+
163.0541	718	C13H7+
164.049	338	C12H6N+
175.0417	18	C13H5N+
177.0571	181	C13H7N+
188.0493	401	C14H6N+
190.065	999	C14H8N+
202.0774	488	C16H10+
215.0603	548	C15H7N2+
