Mass spectrum: 1-Methylxanthine; LC-ESI-QFT; MS2; CE: 120%; R=17500; [M-H]-
Name: 1-Methylxanthine
Name: 1-methyl-3,7-dihydropurine-2,6-dione
Formula: C6H6N4O2
Exact mass: 166.0490754
SMILES: CN1C(=O)C2=C(NC1=O)N=CN2
InChI: InChI=1S/C6H6N4O2/c1-10-5(11)3-4(8-2-7-3)9-6(10)12/h2H,1H3,(H,7,8)(H,9,12)
Instrument: Exploris 240 Orbitrap Thermo Scientific
Instrument type: LC-ESI-QFT
Ms type: MS2
Ion mode: NEGATIVE
Ionization: ESI
Fragmentation mode: HCD
Collision energy: 120 % (nominal)
Resolution: 17500
Column name: XBridge C18 3.5um, 2.1x50mm, Waters
Retention time: 1.749 min
Base peak: 165.0418
Precursor m/z: 165.0418
Precursor type: [M-H]-
m/z	relative intensity	assigned
41.0146	27	CHN2-
53.0147	21	C2HN2-
65.9985	999	C3NO-
80.0255	162	C3H2N3-
106.0287	17	C4H2N4-
108.0205	329	C4H2N3O-
126.0308	28	C4H4N3O2-
