Mass spectrum: Melatonin; LC-ESI-QFT; MS2; CE: 60%; R=15000; [M+H]+
Name: Melatonin
Name: N-[2-(5-methoxy-1H-indol-3-yl)ethyl]ethanamide
Formula: C13H16N2O2
Exact mass: 232.1211778
SMILES: CC(=O)NCCC1=CNC2=C1C=C(C=C2)OC
InChI: InChI=1S/C13H16N2O2/c1-9(16)14-6-5-10-8-15-13-4-3-11(17-2)7-12(10)13/h3-4,7-8,15H,5-6H2,1-2H3,(H,14,16)
Instrument: Exploris 240 Thermo Scientific
Instrument type: LC-ESI-QFT
Ms type: MS2
Ion mode: POSITIVE
Ionization: ESI
Fragmentation mode: HCD
Collision energy: 60 % (nominal)
Resolution: 15000
Column name: XBridge C18 3.5um, 2.1x50mm, Waters
Retention time: 4.312 min
Base peak: 233.128
Precursor m/z: 233.1285
Precursor type: [M+H]+
m/z	relative intensity	assigned
78.0465	38	C6H6+
91.0543	45	C7H7+
95.049	10	C6H7O+
103.0542	49	C8H7+
104.0496	30	C7H6N+
104.0622	31	C8H8+
105.0573	39	C7H7N+
115.0543	117	C9H7+
116.0495	15	C8H6N+
117.0573	47	C8H7N+
130.0651	999	C9H8N+
131.0729	421	C9H9N+
132.0444	15	C8H6NO+
142.0652	42	C10H8N+
143.0729	150	C10H9N+
158.0599	53	C10H8NO+
159.0679	106	C10H9NO+
