Mass spectrum: Prallethrin; LC-ESI-QFT; MS2; CE: 120%; R=15000; [M+H]+
Name: Prallethrin
Name: (2-methyl-4-oxo-3-prop-2-ynylcyclopent-2-en-1-yl) 2,2-dimethyl-3-(2-methylprop-1-enyl)cyclopropane-1-carboxylate
Formula: C19H24O3
Exact mass: 300.1725446
SMILES: CC1=C(C(=O)CC1OC(=O)C2C(C2(C)C)C=C(C)C)CC#C
InChI: InChI=1S/C19H24O3/c1-7-8-13-12(4)16(10-15(13)20)22-18(21)17-14(9-11(2)3)19(17,5)6/h1,9,14,16-17H,8,10H2,2-6H3
Instrument: Exploris 240 Thermo Scientific
Instrument type: LC-ESI-QFT
Ms type: MS2
Ion mode: POSITIVE
Ionization: ESI
Fragmentation mode: HCD
Collision energy: 120 % (nominal)
Resolution: 15000
Column name: XBridge C18 3.5um, 2.1x50mm, Waters
Retention time: 12.520 min
Base peak: 301.1796
Precursor m/z: 301.1798
Precursor type: [M+H]+
m/z	relative intensity	assigned
50.0153	28	C4H2+
51.0229	353	C4H3+
53.0386	115	C4H5+
55.0178	38	C3H3O+
55.0542	84	C4H7+
65.0385	147	C5H5+
67.0542	92	C5H7+
69.07	25	C5H9+
77.0385	999	C6H5+
78.0464	24	C6H6+
79.0542	640	C6H7+
81.0698	126	C6H9+
91.0542	72	C7H7+
93.0698	38	C7H9+
94.0412	26	C6H6O+
95.0491	578	C6H7O+
103.0541	215	C8H7+
115.054	51	C9H7+
