Mass spectrum: Lercanidipine; LC-ESI-QFT; MS2; CE: 90%; R=17500; [M+H]+
Name: Lercanidipine
Name: 5-O-[1-[3,3-diphenylpropyl(methyl)amino]-2-methylpropan-2-yl] 3-O-methyl 2,6-dimethyl-4-(3-nitrophenyl)-1,4-dihydropyridine-3,5-dicarboxylate
Formula: C36H41N3O6
Exact mass: 611.299536032
SMILES: CC1=C(C(C(=C(N1)C)C(=O)OC(C)(C)CN(C)CCC(C2=CC=CC=C2)C3=CC=CC=C3)C4=CC(=CC=C4)[N+](=O)[O-])C(=O)OC
InChI: InChI=1S/C36H41N3O6/c1-24-31(34(40)44-6)33(28-18-13-19-29(22-28)39(42)43)32(25(2)37-24)35(41)45-36(3,4)23-38(5)21-20-30(26-14-9-7-10-15-26)27-16-11-8-12-17-27/h7-19,22,30,33,37H,20-21,23H2,1-6H3
Instrument: Exploris 240 Orbitrap Thermo Scientific
Instrument type: LC-ESI-QFT
Ms type: MS2
Ion mode: POSITIVE
Ionization: ESI
Fragmentation mode: HCD
Collision energy: 90 % (nominal)
Resolution: 17500
Column name: XBridge C18 3.5um, 2.1x50mm, Waters
Retention time: 11.139 min
Base peak: 132.9582
Precursor m/z: 612.3068
Precursor type: [M+H]+
m/z	relative intensity	assigned
65.0384	54	C5H5+
67.0177	108	C4H3O+
70.0651	104	C4H8N+
71.0731	24	C4H9N+
84.0808	21	C5H10N+
86.0964	46	C5H12N+
91.0542	999	C7H7+
98.0967	24	C6H12N+
100.112	54	C6H14N+
115.0541	231	C9H7+
117.0697	97	C9H9+
128.0619	19	C10H8+
141.0699	29	C11H9+
152.062	421	C12H8+
165.0697	385	C13H9+
166.0782	112	C13H10+
167.0857	296	C13H11+
168.0803	40	C12H10N+
169.0652	15	C12H9O+
180.0807	79	C13H10N+
181.0886	39	C13H11N+
182.0966	33	C13H12N+
196.0757	24	C13H10NO+
208.0752	111	C14H10NO+
209.0835	68	C14H11NO+
210.091	94	C14H12NO+
225.079	16	C14H11NO2+
226.0869	97	C14H12NO2+
236.0713	38	C15H10NO2+
240.1022	25	C15H14NO2+
254.0811	22	C15H12NO3+
268.0976	23	C16H14NO3+
