Mass spectrum: N-Desmethylrosuvastatin; LC-ESI-QFT; MS2; CE: 30%; R=17500; [M-H]-
Name: N-Desmethylrosuvastatin
Name: 7-[4-(4-fluorophenyl)-2-(methanesulfonamido)-6-propan-2-ylpyrimidin-5-yl]-3,5-dihydroxyhept-6-enoic acid
Formula: C21H26FN3O6S
Exact mass: 467.1526348
SMILES: CC(C)C1=NC(=NC(=C1C=CC(CC(CC(=O)O)O)O)C2=CC=C(C=C2)F)NS(=O)(=O)C
InChI: InChI=1S/C21H26FN3O6S/c1-12(2)19-17(9-8-15(26)10-16(27)11-18(28)29)20(13-4-6-14(22)7-5-13)24-21(23-19)25-32(3,30)31/h4-9,12,15-16,26-27H,10-11H2,1-3H3,(H,28,29)(H,23,24,25)
Instrument: Exploris 240 Orbitrap Thermo Scientific
Instrument type: LC-ESI-QFT
Ms type: MS2
Ion mode: NEGATIVE
Ionization: ESI
Fragmentation mode: HCD
Collision energy: 30 % (nominal)
Resolution: 17500
Column name: XBridge C18 3.5um, 2.1x50mm, Waters
Retention time: 5.365 min
Base peak: 466.145
Precursor m/z: 466.1454
Precursor type: [M-H]-
m/z	relative intensity	assigned
59.0136	11	C2H3O2-
63.9622	10	O2S-
76.9701	13	CHO2S-
78.9859	68	CH3O2S-
85.0296	33	C4H5O2-
87.0087	139	C3H3O3-
118.9921	120	C2H3N2O2S-
136.0182	8	C2H6N3O2S-
230.1095	20	C10H18N2O2S-
284.1198	42	C13H20N2O3S-
308.087	80	C14H15FN3O2S-
320.0874	22	C15H15FN3O2S-
326.1667	30	C19H21FN3O-
334.1045	58	C15H16N3O6-
360.1187	205	C18H19FN3O2S-
362.0978	531	C17H17FN3O3S-
378.1292	298	C18H21FN3O3S-
386.1341	98	C20H21FN3O2S-
404.1449	999	C20H23FN3O3S-
406.1242	60	C19H21FN3O4S-
