Mass spectrum: Losartan; LC-ESI-QFT; MS2; CE: 30%; R=15000; [M+H]+
Name: Losartan
Name: [2-butyl-5-chloro-3-[[4-[2-(2H-tetrazol-5-yl)phenyl]phenyl]methyl]imidazol-4-yl]methanol
Name: [2-butyl-5-chloranyl-3-[[4-[2-(2H-1,2,3,4-tetrazol-5-yl)phenyl]phenyl]methyl]imidazol-4-yl]methanol
Formula: C22H23ClN6O
Exact mass: 422.162187
SMILES: CCCCC1=NC(=C(N1CC2=CC=C(C=C2)C3=CC=CC=C3C4=NNN=N4)CO)Cl
InChI: InChI=1S/C22H23ClN6O/c1-2-3-8-20-24-21(23)19(14-30)29(20)13-15-9-11-16(12-10-15)17-6-4-5-7-18(17)22-25-27-28-26-22/h4-7,9-12,30H,2-3,8,13-14H2,1H3,(H,25,26,27,28)
Instrument: Q Exactive
Instrument type: LC-ESI-QFT
Ms type: MS2
Ion mode: POSITIVE
Ionization: ESI
Fragmentation mode: HCD
Collision energy: 30 % (nominal)
Resolution: 15000
Column name: XBridge C18 3.5um, 2.1x50mm, Waters
Retention time: 7.649 min
Base peak: 423.1702
Precursor m/z: 423.1695
Precursor type: [M+H]+
Precursor intensity: 1952951099.16
m/z	relative intensity	assigned
171.0683	119	C8H12ClN2+
180.0808	45	C13H10N+
190.0648	12	C14H8N+
192.0811	59	C14H10N+
206.0836	38	C14H10N2+
207.0917	999	C14H11N2+
235.0979	107	C14H11N4+
258.1026	61	C17H12N3+
259.0872	14	C14H14ClN3+
324.1498	29	C22H18N3+
341.1762	57	C22H21N4+
362.1418	32	C22H21ClN3+
377.1527	62	C22H22ClN4+
