Mass spectrum: Chlorprothixene; LC-ESI-QFT; MS2; CE: 75%; R=17500; [M+H]+
Name: Chlorprothixene
Name: 3-(2-chlorothioxanthen-9-ylidene)-N,N-dimethylpropan-1-amine
Formula: C18H18ClNS
Exact mass: 315.084848256
SMILES: CN(C)CCC=C1C2=CC=CC=C2SC3=C1C=C(C=C3)Cl
InChI: InChI=1S/C18H18ClNS/c1-20(2)11-5-7-14-15-6-3-4-8-17(15)21-18-10-9-13(19)12-16(14)18/h3-4,6-10,12H,5,11H2,1-2H3
Instrument: Exploris 240 Orbitrap Thermo Scientific
Instrument type: LC-ESI-QFT
Ms type: MS2
Ion mode: POSITIVE
Ionization: ESI
Fragmentation mode: HCD
Collision energy: 75 % (nominal)
Resolution: 17500
Column name: XBridge C18 3.5um, 2.1x50mm, Waters
Retention time: 10.058 min
Base peak: 316.0919
Precursor m/z: 316.0921
Precursor type: [M+H]+
m/z	relative intensity	assigned
58.0651	195	C3H8N+
70.0651	454	C4H8N+
72.0808	25	C4H10N+
84.0808	353	C5H10N+
85.0885	92	C5H11N+
128.0625	31	C10H8+
195.0261	16	C13H7S+
196.0338	23	C13H8S+
202.0782	52	C16H10+
203.0856	164	C16H11+
210.05	255	C14H10S+
212.0393	34	C14H9Cl+
221.0419	905	C15H9S+
231.0029	999	C13H8ClS+
234.05	245	C16H10S+
235.0577	425	C16H11S+
236.0648	86	C16H12S+
238.0544	177	C16H11Cl+
245.0184	45	C14H10ClS+
255.0023	68	C15H8ClS+
256.0118	34	C15H9ClS+
271.035	33	C16H12ClS+
