Mass spectrum: Dimethenamid; LC-ESI-QFT; MS2; CE: 60%; R=15000; [M+H]+
Name: Dimethenamid
Name: 2-chloro-N-(2,4-dimethylthiophen-3-yl)-N-(1-methoxypropan-2-yl)acetamide
Formula: C12H18ClNO2S
Exact mass: 275.0746775
SMILES: COCC(C)N(C(=O)CCl)C1=C(C)SC=C1C
InChI: InChI=1S/C12H18ClNO2S/c1-8-7-17-10(3)12(8)14(11(15)5-13)9(2)6-16-4/h7,9H,5-6H2,1-4H3
Instrument: Q Exactive Plus
Instrument type: LC-ESI-QFT
Ms type: MS2
Ion mode: POSITIVE
Ionization: ESI
Fragmentation mode: HCD
Collision energy: 60 % (nominal)
Resolution: 15000
Column name: XBridge C18 3.5um, 2.1x50mm, Waters
Retention time: 8.898 min
Base peak: 276.0821
Precursor m/z: 276.082
Precursor type: [M+H]+
Precursor intensity: 856186615
m/z	relative intensity	assigned
56.0495	17	C3H6N+
58.995	24	C2H3S+
67.0544	11	C5H7+
73.0648	71	C4H9O+
76.9789	88	C2H2ClO+
91.0544	10	C7H7+
93.07	30	C7H9+
94.0653	17	C6H8N+
95.073	32	C6H9N+
99.0264	16	C5H7S+
108.0807	35	C7H10N+
111.0264	555	C6H7S+
112.0343	33	C6H8S+
113.042	38	C6H9S+
117.0699	18	C9H9+
120.081	27	C8H10N+
122.0965	10	C8H12N+
124.0343	26	C7H8S+
125.0421	55	C7H9S+
126.0373	206	C6H8NS+
127.021	23	C6H7OS+
127.0454	22	C6H9NS+
127.0576	31	C7H11S+
128.0528	66	C6H10NS+
129.037	24	C6H9OS+
134.0965	39	C9H12N+
135.1043	100	C9H13N+
137.0295	37	C7H7NS+
138.0373	94	C7H8NS+
140.0527	25	C7H10NS+
150.0374	65	C8H8NS+
151.0452	18	C8H9NS+
151.0574	103	C9H11S+
152.0166	31	C7H6NOS+
152.0529	134	C8H10NS+
153.0244	76	C7H7NOS+
153.0606	32	C8H11NS+
154.0325	19	C7H8NOS+
166.0322	31	C8H8NOS+
166.0685	35	C9H12NS+
167.0763	77	C9H13NS+
168.0842	999	C9H14NS+
186.014	64	C8H9ClNS+
203.017	44	C8H10ClNOS+
204.0246	17	C8H11ClNOS+
244.0558	224	C11H15ClNOS+
