Mass spectrum: 6-2-FTAB; LC-ESI-QFT; MS2; CE: 45%; R=17500; [M-H]-
Name: 6-2-FTAB
Name: 1-Propanaminium, N-(carboxymethyl)-N,N-dimethyl-3-(((3,3,4,4,5,5,6,6,7,7,8,8,8-tridecafluorooctyl)sulfonyl)amino)-, inner salt
Name: 2-[dimethyl-[3-(3,3,4,4,5,5,6,6,7,7,8,8,8-tridecafluorooctylsulfonylamino)propyl]azaniumyl]acetate
Formula: C15H19F13N2O4S
Exact mass: 570.085794948
SMILES: C[N+](C)(CCCNS(=O)(=O)CCC(C(C(C(C(C(F)(F)F)(F)F)(F)F)(F)F)(F)F)(F)F)CC(=O)[O-]
InChI: InChI=1S/C15H19F13N2O4S/c1-30(2,8-9(31)32)6-3-5-29-35(33,34)7-4-10(16,17)11(18,19)12(20,21)13(22,23)14(24,25)15(26,27)28/h29H,3-8H2,1-2H3
Instrument: Exploris 240 Orbitrap Thermo Scientific
Instrument type: LC-ESI-QFT
Ms type: MS2
Ion mode: NEGATIVE
Ionization: ESI
Fragmentation mode: HCD
Collision energy: 45 % (nominal)
Resolution: 17500
Column name: XBridge C18 3.5um, 2.1x50mm, Waters
Retention time: 10.997 min
Base peak: 569.0784
Precursor m/z: 569.0785
Precursor type: [M-H]-
m/z	relative intensity	assigned
63.9624	588	O2S-
64.9703	999	HO2S-
82.9608	440	FO2S-
91.9812	352	CH2NO2S-
92.9889	48	CH3NO2S-
102.056	28	C4H8NO2-
108.0123	42	C2H6NO2S-
117.9968	23	C3H4NO2S-
120.0125	387	C3H6NO2S-
149.0394	16	C4H9N2O2S-
159.1143	17	C7H15N2O2-
163.0546	64	C5H11N2O2S-
242.0033	48	C5H7F5O3S-
262.0098	102	C11H2F6N-
266.9862	148	C8F9-
282.0168	46	C11H3F7N-
286.9925	204	C8HF10-
410.9733	86	C8H4F13O2S-
