Mass spectrum: Apalutamide; LC-ESI-QFT; MS2; CE: 30%; R=15000; [M-H]-
Name: Apalutamide
Name: 4-[7-[6-cyano-5-(trifluoromethyl)pyridin-3-yl]-8-oxo-6-sulfanylidene-5,7-diazaspiro[3.4]octan-5-yl]-2-fluoro-N-methylbenzamide
Name: 4-[7-[6-cyano-5-(trifluoromethyl)pyridin-3-yl]-8-oxidanylidene-6-sulfanylidene-5,7-diazaspiro[3.4]octan-5-yl]-2-fluoranyl-N-methyl-benzamide
Formula: C21H15F4N5O2S
Exact mass: 477.0882586
SMILES: CNC(=O)C1=C(C=C(C=C1)N2C(=S)N(C(=O)C23CCC3)C4=CC(=C(N=C4)C#N)C(F)(F)F)F
InChI: InChI=1S/C21H15F4N5O2S/c1-27-17(31)13-4-3-11(8-15(13)22)30-19(33)29(18(32)20(30)5-2-6-20)12-7-14(21(23,24)25)16(9-26)28-10-12/h3-4,7-8,10H,2,5-6H2,1H3,(H,27,31)
Instrument: Q Exactive
Instrument type: LC-ESI-QFT
Ms type: MS2
Ion mode: NEGATIVE
Ionization: ESI
Fragmentation mode: HCD
Collision energy: 30 % (nominal)
Resolution: 15000
Column name: XBridge C18 3.5um, 2.1x50mm, Waters
Retention time: 8.921 min
Base peak: 522.0874
Precursor m/z: 476.081
Precursor type: [M-H]-
Precursor intensity: 10089784.84
m/z	relative intensity	assigned
142.0299	47	C9H4NO-
170.0612	126	C11H8NO-
180.0467	119	C9H7FNO2-
190.0677	78	C11H9FNO-
266.0546	54	C12H7F3N3O-
297.0066	75	C16H5F2NOS-
371.0221	213	C17H6F3N4OS-
377.1036	159	C18H13F4N4O-
391.0285	858	C17H7F4N4OS-
409.0392	999	C17H9F4N4O2S-
419.06	70	C19H11F4N4OS-
437.0706	735	C19H13F4N4O2S-
