Mass spectrum: Indoxacarb; LC-ESI-QFT; MS2; CE: 75%; R=15000; [M+H]+
Name: Indoxacarb
Name: methyl (4aS)-7-chloro-2-[methoxycarbonyl-[4-(trifluoromethoxy)phenyl]carbamoyl]-3,5-dihydroindeno[1,2-e][1,3,4]oxadiazine-4a-carboxylate
Formula: C22H17ClF3N3O7
Exact mass: 527.0707122
SMILES: COC(=O)N(C(=O)N1CO[C@]2(CC3=C(C=CC(Cl)=C3)C2=N1)C(=O)OC)C1=CC=C(OC(F)(F)F)C=C1
InChI: InChI=1S/C22H17ClF3N3O7/c1-33-18(30)21-10-12-9-13(23)3-8-16(12)17(21)27-28(11-35-21)19(31)29(20(32)34-2)14-4-6-15(7-5-14)36-22(24,25)26/h3-9H,10-11H2,1-2H3/t21-/m0/s1
Instrument: Q Exactive Plus
Instrument type: LC-ESI-QFT
Ms type: MS2
Ion mode: POSITIVE
Ionization: ESI
Fragmentation mode: HCD
Collision energy: 75 % (nominal)
Resolution: 15000
Column name: XBridge C18 3.5um, 2.1x50mm, Waters
Retention time: 12.982 min
Base peak: 528.0783
Precursor m/z: 528.078
Precursor type: [M+H]+
Precursor intensity: 66716548.9
m/z	relative intensity	assigned
51.0231	13	C4H3+
53.0385	29	C4H5+
56.0131	662	C2H2NO+
63.0229	10	C5H3+
68.9947	92	CF3+
69.9924	17	C2NO2+
75.0229	22	C6H3+
75.0441	18	C3H7O2+
77.0385	20	C6H5+
78.0338	36	C5H4N+
83.0291	15	C5H4F+
89.0386	30	C7H5+
90.0339	41	C6H4N+
93.0574	10	C6H7N+
95.0491	128	C6H7O+
96.0444	42	C5H6NO+
102.0464	25	C8H6+
103.0543	14	C8H7+
104.0495	164	C7H6N+
105.0448	34	C6H5N2+
106.0288	240	C6H4NO+
113.0386	44	C9H5+
114.034	42	C8H4N+
115.0418	10	C8H5N+
115.0542	150	C9H7+
116.0495	11	C8H6N+
116.0621	88	C9H8+
122.9996	163	C7H4Cl+
124.0076	19	C7H5Cl+
125.0154	12	C7H6Cl+
126.0338	40	C9H4N+
126.0465	48	C10H6+
127.0417	324	C9H5N+
128.0621	124	C10H8+
132.0445	73	C8H6NO+
134.0236	999	C7H4NO2+
136.0074	43	C8H5Cl+
137.0154	40	C8H6Cl+
140.0496	22	C10H6N+
141.0574	17	C10H7N+
142.0651	70	C10H8N+
144.0445	32	C9H6NO+
146.9998	32	C9H4Cl+
148.0076	15	C4H4ClFN3+
149.0152	188	C9H6Cl+
150.0106	373	C8H5ClN+
152.0023	133	C8H5ClO+
154.04	88	C9H4N3+
155.0603	72	C10H7N2+
157.0283	14	C5H4FN3O2+
161.0026	31	C9H4ClN+
162.0105	465	C9H5ClN+
163.0059	34	C8H4ClN2+
164.0029	49	C9H5ClO+
166.0055	20	C8H5ClNO+
167.0259	99	C9H8ClO+
168.021	383	C8H7ClNO+
175.0061	25	F3H6O7+
176.0267	32	C5H4F2N3O2+
179.026	42	C10H8ClO+
180.0209	97	C9H7ClNO+
189.0213	58	C10H6ClN2+
190.0055	24	C10H5ClNO+
195.0211	16	C5H5F2N2O4+
203.0189	911	C8H4F3NO2+
