Mass spectrum: Carbetapentane; LC-ESI-QFT; MS2; CE: 30%; R=15000; [M+H]+
Name: Carbetapentane
Name: 2-[2-(diethylamino)ethoxy]ethyl 1-phenylcyclopentane-1-carboxylate
Formula: C20H31NO3
Exact mass: 333.2303939
SMILES: CCN(CC)CCOCCOC(=O)C1(CCCC1)C2=CC=CC=C2
InChI: InChI=1S/C20H31NO3/c1-3-21(4-2)14-15-23-16-17-24-19(22)20(12-8-9-13-20)18-10-6-5-7-11-18/h5-7,10-11H,3-4,8-9,12-17H2,1-2H3
Instrument: Exploris 240 Thermo Scientific
Instrument type: LC-ESI-QFT
Ms type: MS2
Ion mode: POSITIVE
Ionization: ESI
Fragmentation mode: HCD
Collision energy: 30 % (nominal)
Resolution: 15000
Column name: XBridge C18 3.5um, 2.1x50mm, Waters
Retention time: 6.712 min
Base peak: 334.2377
Precursor m/z: 334.2377
Precursor type: [M+H]+
m/z	relative intensity	assigned
100.1121	390	C6H14N+
145.1012	40	C11H13+
217.1228	26	C14H17O2+
334.238	999	C20H32NO3+
