Mass spectrum: Amlodipine metabolite M9; LC-ESI-QFT; MS2; CE: 30%; R=17500; [M+H]+
Name: Amlodipine metabolite M9
Name: 3-Ethyl 5-methyl 2-((2-aminoethoxy)methyl)-4-(2-chlorophenyl)-6-methylpyridine-3,5-dicarboxylate
Name: 3-O-ethyl 5-O-methyl 2-(2-aminoethoxymethyl)-4-(2-chlorophenyl)-6-methylpyridine-3,5-dicarboxylate
Name: Dehydroamlodipine
Formula: C20H23ClN2O5
Exact mass: 406.1295495
SMILES: CCOC(=O)C1=C(C(=C(N=C1COCCN)C)C(=O)OC)C2=CC=CC=C2Cl
InChI: InChI=1S/C20H23ClN2O5/c1-4-28-20(25)18-15(11-27-10-9-22)23-12(2)16(19(24)26-3)17(18)13-7-5-6-8-14(13)21/h5-8H,4,9-11,22H2,1-3H3
Instrument: Exploris 240 Orbitrap Thermo Scientific
Instrument type: LC-ESI-QFT
Ms type: MS2
Ion mode: POSITIVE
Ionization: ESI
Fragmentation mode: HCD
Collision energy: 30 % (nominal)
Resolution: 17500
Column name: XBridge C18 3.5um, 2.1x50mm, Waters
Retention time: 6.888 min
Base peak: 407.1365
Precursor m/z: 407.1368
Precursor type: [M+H]+
m/z	relative intensity	assigned
286.0266	899	C15H9ClNO3+
318.0529	999	C16H13ClNO4+
346.0842	291	C18H17ClNO4+
364.0949	277	C18H19ClNO5+
390.1108	48	C20H21ClNO5+
407.137	152	C20H24ClN2O5+
