Mass spectrum: Flurprimidol; LC-ESI-QFT; MS2; CE: 75%; R=15000; [M+H]+
Name: Flurprimidol
Name: 2-methyl-1-pyrimidin-5-yl-1-[4-(trifluoromethoxy)phenyl]propan-1-ol
Formula: C15H15F3N2O2
Exact mass: 312.1085624
SMILES: CC(C)C(C1=CC=C(C=C1)OC(F)(F)F)(C2=CN=CN=C2)O
InChI: InChI=1S/C15H15F3N2O2/c1-10(2)14(21,12-7-19-9-20-8-12)11-3-5-13(6-4-11)22-15(16,17)18/h3-10,21H,1-2H3
Instrument: Exploris 240 Thermo Scientific
Instrument type: LC-ESI-QFT
Ms type: MS2
Ion mode: POSITIVE
Ionization: ESI
Fragmentation mode: HCD
Collision energy: 75 % (nominal)
Resolution: 15000
Column name: XBridge C18 3.5um, 2.1x50mm, Waters
Retention time: 9.380 min
Base peak: 313.1155
Precursor m/z: 313.1158
Precursor type: [M+H]+
m/z	relative intensity	assigned
54.0338	58	C3H4N+
80.0369	69	C4H4N2+
81.0447	394	C4H5N2+
115.0544	17	C9H7+
130.0651	53	C9H8N+
155.0605	21	C10H7N2+
157.0762	32	C10H9N2+
158.0598	25	C10H8NO+
175.0361	35	C8H6F3O+
183.0555	14	C11H7N2O+
185.0709	202	C11H9N2O+
189.0147	136	C11H3F2O+
214.0471	124	C10H7F3NO+
241.058	108	C11H8F3N2O+
242.0414	80	C14H6F2NO+
269.0532	999	C12H8F3N2O2+
270.061	199	C12H9F3N2O2+
