Mass spectrum: 8-Hydroxymirtazapine; LC-ESI-QFT; MS2; CE: 120%; R=17500; [M+H]+
Name: 8-Hydroxymirtazapine
Name: 5-methyl-2,5,19-triazatetracyclo[13.4.0.02,7.08,13]nonadeca-1(15),8,10,12,16,18-hexaen-17-ol
Formula: C17H19N3O
Exact mass: 281.1528122
SMILES: CN1CCN2C(C1)C3=CC=CC=C3CC4=CC(=CN=C42)O
InChI: InChI=1S/C17H19N3O/c1-19-6-7-20-16(11-19)15-5-3-2-4-12(15)8-13-9-14(21)10-18-17(13)20/h2-5,9-10,16,21H,6-8,11H2,1H3
Instrument: Exploris 240 Orbitrap Thermo Scientific
Instrument type: LC-ESI-QFT
Ms type: MS2
Ion mode: POSITIVE
Ionization: ESI
Fragmentation mode: HCD
Collision energy: 120 % (nominal)
Resolution: 17500
Column name: XBridge C18 3.5um, 2.1x50mm, Waters
Retention time: 3.696 min
Base peak: 282.1597
Precursor m/z: 282.1601
Precursor type: [M+H]+
m/z	relative intensity	assigned
51.023	52	C4H3+
53.0386	341	C4H5+
56.0496	73	C3H6N+
57.0574	34	C3H7N+
58.0651	243	C3H8N+
63.023	33	C5H3+
65.0387	54	C5H5+
68.0131	372	C3H2NO+
70.0652	96	C4H8N+
72.0807	355	C4H10N+
77.0386	26	C6H5+
78.034	88	C5H4N+
80.0493	176	C5H6N+
89.0387	41	C7H5+
91.0544	179	C7H7+
103.0543	45	C8H7+
105.0447	48	C6H5N2+
105.0701	39	C8H9+
108.0446	59	C6H6NO+
115.0543	308	C9H7+
116.0496	200	C8H6N+
127.0546	33	C10H7+
128.0622	144	C10H8+
129.0699	101	C10H9+
130.0651	183	C9H8N+
131.073	32	C9H9N+
139.0542	209	C11H7+
140.0494	66	C10H6N+
141.0578	40	C10H7N+
141.0702	142	C11H9+
144.0808	76	C10H10N+
152.062	55	C12H8+
153.0704	35	C12H9+
154.0652	205	C11H8N+
156.081	72	C11H10N+
166.065	401	C12H8N+
167.0729	223	C12H9N+
181.0762	299	C12H9N2+
182.0841	137	C12H10N2+
183.0684	128	C12H9NO+
194.084	60	C13H10N2+
196.0762	95	C13H10NO+
209.0708	209	C13H9N2O+
210.0788	999	C13H10N2O+
211.0865	156	C13H11N2O+
223.0864	54	C14H11N2O+
235.0868	77	C15H11N2O+
