Mass spectrum: Pyraflufen-ethyl; LC-ESI-QFT; MS2; CE: 90%; R=15000; [M+H]+
Name: Pyraflufen-ethyl
Name: ethyl 2-[2-chloro-5-[4-chloro-5-(difluoromethoxy)-1-methylpyrazol-3-yl]-4-fluorophenoxy]acetate
Formula: C15H13Cl2F3N2O4
Exact mass: 412.0204469
SMILES: CCOC(=O)COC1=C(C=C(C(=C1)C2=NN(C(=C2Cl)OC(F)F)C)F)Cl
InChI: InChI=1S/C15H13Cl2F3N2O4/c1-3-24-11(23)6-25-10-4-7(9(18)5-8(10)16)13-12(17)14(22(2)21-13)26-15(19)20/h4-5,15H,3,6H2,1-2H3
Instrument: Exploris 240 Thermo Scientific
Instrument type: LC-ESI-QFT
Ms type: MS2
Ion mode: POSITIVE
Ionization: ESI
Fragmentation mode: HCD
Collision energy: 90 % (nominal)
Resolution: 15000
Column name: XBridge C18 3.5um, 2.1x50mm, Waters
Retention time: 11.460 min
Base peak: 413.0276
Precursor m/z: 413.0277
Precursor type: [M+H]+
m/z	relative intensity	assigned
58.0289	47	C2H4NO+
78.0105	25	C2H5ClN+
107.0293	18	C7H4F+
132.0244	18	C8H3FN+
133.0444	61	C9H6F+
134.0403	68	C8H5FN+
135.0477	67	C8H6FN+
140.9902	101	C7H3ClF+
142.0528	54	C9H6N2+
143.0609	12	C9H7N2+
147.0355	65	C8H4FN2+
148.0188	67	C8H3FNO+
150.0108	43	C8H5ClN+
156.0009	152	C7H4ClFN+
161.0516	137	C6H7F2N2O+
162.0348	30	C9H5FNO+
162.0591	102	C9H7FN2+
169.0086	261	C8H5ClFN+
171.0552	23	C10H7N2O+
176.9667	57	C7H4Cl2F+
183.9959	94	C8H4ClFNO+
190.0535	229	C10H7FN2O+
195.0116	30	C12H2FNO+
197.0039	133	C9H5ClFNO+
197.0277	156	C9H7ClFN2+
201.9624	93	C8H3Cl2FN+
213.0224	999	C9H7ClFN2O+
218.0488	16	C11H7FN2O2+
225.0226	124	C10H7ClFN2O+
253.0175	181	C11H7ClFN2O2+
275.9862	59	C10H7Cl2FN2O2+
