Mass spectrum: Tonalide; LC-ESI-QFT; MS2; CE: 75%; R=15000; [M+H]+
Name: Tonalide
Name: Tonalid
Name: 1-(3,5,5,6,8,8-hexamethyl-6,7-dihydronaphthalen-2-yl)ethanone
Formula: C18H26O
Exact mass: 258.1983655
SMILES: CC1CC(C2=C(C1(C)C)C=C(C(=C2)C(=O)C)C)(C)C
InChI: InChI=1S/C18H26O/c1-11-8-16-15(9-14(11)13(3)19)17(4,5)10-12(2)18(16,6)7/h8-9,12H,10H2,1-7H3
Instrument: Exploris 240 Thermo Scientific
Instrument type: LC-ESI-QFT
Ms type: MS2
Ion mode: POSITIVE
Ionization: ESI
Fragmentation mode: HCD
Collision energy: 75 % (nominal)
Resolution: 15000
Column name: XBridge C18 3.5um, 2.1x50mm, Waters
Retention time: 15.295 min
Base peak: 259.2053
Precursor m/z: 259.2056
Precursor type: [M+H]+
m/z	relative intensity	assigned
57.07	63	C4H9+
69.0699	42	C5H9+
105.07	163	C8H9+
119.0855	401	C9H11+
129.0701	64	C10H9+
133.1012	252	C10H13+
147.0804	598	C10H11O+
161.0961	166	C11H13O+
175.1118	999	C12H15O+
202.0778	549	C16H10+
