Mass spectrum: Trimebutine; LC-ESI-QFT; MS2; CE: 180%; R=17500; [M+H]+
Name: Trimebutine
Name: [2-(dimethylamino)-2-phenylbutyl] 3,4,5-trimethoxybenzoate
Formula: C22H29NO5
Exact mass: 387.204573028
SMILES: CCC(COC(=O)C1=CC(=C(C(=C1)OC)OC)OC)(C2=CC=CC=C2)N(C)C
InChI: InChI=1S/C22H29NO5/c1-7-22(23(2)3,17-11-9-8-10-12-17)15-28-21(24)16-13-18(25-4)20(27-6)19(14-16)26-5/h8-14H,7,15H2,1-6H3
Instrument: Exploris 240 Orbitrap Thermo Scientific
Instrument type: LC-ESI-QFT
Ms type: MS2
Ion mode: POSITIVE
Ionization: ESI
Fragmentation mode: HCD
Collision energy: 180 % (nominal)
Resolution: 17500
Column name: XBridge C18 3.5um, 2.1x50mm, Waters
Retention time: 6.755 min
Base peak: 388.2118
Precursor m/z: 388.2118
Precursor type: [M+H]+
m/z	relative intensity	assigned
50.0151	196	C4H2+
51.0229	541	C4H3+
52.0308	65	C4H4+
53.0022	147	C3HO+
53.0386	615	C4H5+
55.0179	154	C3H3O+
63.023	341	C5H3+
64.0308	97	C5H4+
65.0386	999	C5H5+
66.01	306	C4H2O+
66.0465	99	C5H6+
67.0544	24	C5H7+
68.0256	76	C4H4O+
68.9972	50	C3HO2+
77.0386	206	C6H5+
78.0465	50	C6H6+
79.0178	84	C5H3O+
81.0334	158	C5H5O+
89.0387	71	C7H5+
91.0543	476	C7H7+
92.0257	38	C6H4O+
94.0051	98	C5H2O2+
95.0492	90	C6H7O+
107.0132	62	C6H3O2+
109.0284	40	C6H5O2+
115.0541	313	C9H7+
121.0287	59	C7H5O2+
128.0623	53	C10H8+
