Mass spectrum: Naloxone; LC-ESI-QFT; MS2; CE: 45%; R=15000; [M+H]+
Name: Naloxone
Name: Normorphinone, N-allyl-dihydro-14-hydroxy-
Name: 4a,9-dihydroxy-3-prop-2-enyl-2,4,5,6,7a,13-hexahydro-1H-4,12-methanobenzofuro[3,2-e]isoquinolin-7-one
Formula: C19H21NO4
Exact mass: 327.1470582
SMILES: C=CCN1CCC23C4C(=O)CCC2(C1CC5=C3C(=C(C=C5)O)O4)O
InChI: InChI=1S/C19H21NO4/c1-2-8-20-9-7-18-15-11-3-4-12(21)16(15)24-17(18)13(22)5-6-19(18,23)14(20)10-11/h2-4,14,17,21,23H,1,5-10H2
Instrument: Exploris 240 Thermo Scientific
Instrument type: LC-ESI-QFT
Ms type: MS2
Ion mode: POSITIVE
Ionization: ESI
Fragmentation mode: HCD
Collision energy: 45 % (nominal)
Resolution: 15000
Column name: XBridge C18 3.5um, 2.1x50mm, Waters
Retention time: 2.211 min
Base peak: 328.1542
Precursor m/z: 328.1543
Precursor type: [M+H]+
m/z	relative intensity	assigned
84.0806	10	C5H10N+
96.0809	26	C6H10N+
161.0597	18	C10H9O2+
173.0598	22	C11H9O2+
186.0914	11	C12H12NO+
212.0707	18	C13H10NO2+
214.0864	10	C13H12NO2+
227.0699	27	C14H11O3+
251.0936	19	C16H13NO2+
253.1098	219	C16H15NO2+
264.1017	14	C17H14NO2+
268.1331	185	C17H18NO2+
269.1047	78	C16H15NO3+
310.1438	999	C19H20NO3+
328.1548	87	C19H22NO4+
