Mass spectrum: Theobromine; LC-ESI-QFT; MS2; CE: 90%; R=17500; [M+H]+
Name: Theobromine
Name: 3,7-dimethylpurine-2,6-dione
Formula: C7H8N4O2
Exact mass: 180.0647255
SMILES: CN1C=NC2=C1C(=O)NC(=O)N2C
InChI: InChI=1S/C7H8N4O2/c1-10-3-8-5-4(10)6(12)9-7(13)11(5)2/h3H,1-2H3,(H,9,12,13)
Instrument: Exploris 240 Orbitrap Thermo Scientific
Instrument type: LC-ESI-QFT
Ms type: MS2
Ion mode: POSITIVE
Ionization: ESI
Fragmentation mode: HCD
Collision energy: 90 % (nominal)
Resolution: 17500
Column name: XBridge C18 3.5um, 2.1x50mm, Waters
Retention time: 2.049 min
Base peak: 256.9599
Precursor m/z: 181.072
Precursor type: [M+H]+
m/z	relative intensity	assigned
42.0339	328	C2H4N+
54.0339	19	C3H4N+
56.0495	89	C3H6N+
67.0291	999	C3H3N2+
68.0371	16	C3H4N2+
69.0448	502	C3H5N2+
79.0291	39	C4H3N2+
81.0451	30	C4H5N2+
83.0604	251	C4H7N2+
94.04	70	C4H4N3+
96.0557	88	C4H6N3+
108.0557	356	C5H6N3+
109.0397	43	C5H5N2O+
110.0714	272	C5H8N3+
113.0348	43	C4H5N2O2+
122.0588	348	C5H6N4+
123.0427	109	C5H5N3O+
135.0665	135	C6H7N4+
137.0823	93	C6H9N4+
138.0662	239	C6H8N3O+
163.0615	154	C7H7N4O+
181.0724	91	C7H9N4O2+
