Mass spectrum: 3-3-FTCA; LC-ESI-QFT; MS2; CE: 15%; R=17500; [M-H]-
Name: 3-3-FTCA
Name: 4,4,5,5,6,6,6-heptafluorohexanoic acid
Formula: C6H5F7O2
Exact mass: 242.01777694
SMILES: C(CC(C(C(F)(F)F)(F)F)(F)F)C(=O)O
InChI: InChI=1S/C6H5F7O2/c7-4(8,2-1-3(14)15)5(9,10)6(11,12)13/h1-2H2,(H,14,15)
Instrument: Exploris 240 Orbitrap Thermo Scientific
Instrument type: LC-ESI-QFT
Ms type: MS2
Ion mode: NEGATIVE
Ionization: ESI
Fragmentation mode: HCD
Collision energy: 15 % (nominal)
Resolution: 17500
Column name: XBridge C18 3.5um, 2.1x50mm, Waters
Retention time: 8.326 min
Base peak: 241.0105
Precursor m/z: 241.0105
Precursor type: [M-H]-
m/z	relative intensity	assigned
62.9888	999	CFO2-
116.9957	29	C5F3-
137.002	174	C5HF4-
157.0082	72	C5H2F5-
180.9915	12	C6HF4O2-
