Mass spectrum: Penoxsulam; LC-ESI-QFT; MS2; CE: 60%; R=15000; [M+H]+
Name: Penoxsulam
Name: 2-(2,2-difluoroethoxy)-N-(5,8-dimethoxy-[1,2,4]triazolo[1,5-c]pyrimidin-2-yl)-6-(trifluoromethyl)benzenesulfonamide
Formula: C16H14F5N5O5S
Exact mass: 483.0635806
SMILES: COC1=CN=C(N2C1=NC(=N2)NS(=O)(=O)C3=C(C=CC=C3OCC(F)F)C(F)(F)F)OC
InChI: InChI=1S/C16H14F5N5O5S/c1-29-10-6-22-15(30-2)26-13(10)23-14(24-26)25-32(27,28)12-8(16(19,20)21)4-3-5-9(12)31-7-11(17)18/h3-6,11H,7H2,1-2H3,(H,24,25)
Instrument: Exploris 240 Thermo Scientific
Instrument type: LC-ESI-QFT
Ms type: MS2
Ion mode: POSITIVE
Ionization: ESI
Fragmentation mode: HCD
Collision energy: 60 % (nominal)
Resolution: 15000
Column name: XBridge C18 3.5um, 2.1x50mm, Waters
Retention time: 6.431 min
Base peak: 484.0711
Precursor m/z: 484.0709
Precursor type: [M+H]+
m/z	relative intensity	assigned
56.0495	16	C3H6N+
70.0287	49	C3H4NO+
81.0446	67	C4H5N2+
95.0604	53	C5H7N2+
97.0399	59	C4H5N2O+
106.04	146	C2H6F4+
107.024	39	C5H3N2O+
109.0399	42	C5H5N2O+
111.0556	64	C5H7N2O+
124.0268	307	C5H4N2O2+
124.0614	17	FH11NO5+
125.0351	51	F3H8N2S+
125.0461	27	CH7F4NO+
137.0459	25	C2H7F4NO+
152.0448	329	C6H7F3O+
152.0572	50	C2H7FN5O2+
165.0644	263	C6H7N5O+
166.0724	435	C3H10F4N2O+
180.0516	188	C6H6N5O2+
194.0672	778	C7H8N5O2+
195.075	999	CH15N4O5S+
