Mass spectrum: Montelukast; LC-ESI-QFT; MS2; CE: 25%; R=15000; [M+H]+
Name: Montelukast
Name: 2-[1-[[1-[3-[2-(7-chloroquinolin-2-yl)ethenyl]phenyl]-3-[2-(2-hydroxypropan-2-yl)phenyl]propyl]sulfanylmethyl]cyclopropyl]acetic acid
Formula: C35H36ClNO3S
Exact mass: 585.2104427
SMILES: CC(C)(C1=CC=CC=C1CCC(C2=CC=CC(=C2)C=CC3=NC4=C(C=CC(=C4)Cl)C=C3)SCC5(CC5)CC(=O)O)O
InChI: InChI=1S/C35H36ClNO3S/c1-34(2,40)30-9-4-3-7-25(30)13-17-32(41-23-35(18-19-35)22-33(38)39)27-8-5-6-24(20-27)10-15-29-16-12-26-11-14-28(36)21-31(26)37-29/h3-12,14-16,20-21,32,40H,13,17-19,22-23H2,1-2H3,(H,38,39)
Instrument: Exploris 240 Thermo Scientific
Instrument type: LC-ESI-QFT
Ms type: MS2
Ion mode: POSITIVE
Ionization: ESI
Fragmentation mode: HCD
Collision energy: 25 % (nominal)
Resolution: 15000
Column name: XBridge C18 3.5um, 2.1x50mm, Waters
Retention time: 15.027 min
Base peak: 586.2179
Precursor m/z: 586.2177
Precursor type: [M+H]+
m/z	relative intensity	assigned
91.0542	74	C7H7+
105.0697	51	C8H9+
115.0541	18	C9H7+
117.0698	47	C9H9+
129.0699	71	C10H9+
131.0855	450	C10H11+
133.1011	36	C10H13+
143.0855	78	C11H11+
157.1011	155	C12H13+
164.0262	16	C9H7ClN+
202.0777	112	C16H10+
203.0836	35	C10H16ClO2+
243.1045	40	C18H13N+
262.0422	12	C17H9ClN+
276.0576	307	C18H11ClN+
277.0651	102	C18H12ClN+
278.0731	999	C18H13ClN+
279.0807	47	C18H14ClN+
280.089	36	C18H15ClN+
292.0887	243	C19H15ClN+
305.0973	31	C14H22ClO3S+
306.1038	19	C23H14O+
318.1042	30	C21H17ClN+
380.1201	70	C26H19ClN+
382.135	33	C20H27ClO3S+
422.1674	433	C23H31ClO3S+
440.1789	61	C29H27ClNO+
