Mass spectrum: N-(3,4-Dichlorophenyl)propanamide; LC-ESI-QFT; MS2; CE: 120%; R=15000; [M+H]+
Name: N-(3,4-Dichlorophenyl)propanamide
Name: Propanil
Formula: C9H9Cl2NO
Exact mass: 217.0061193
SMILES: CCC(=O)NC1=CC=C(Cl)C(Cl)=C1
InChI: InChI=1S/C9H9Cl2NO/c1-2-9(13)12-6-3-4-7(10)8(11)5-6/h3-5H,2H2,1H3,(H,12,13)
Instrument: Q Exactive Plus
Instrument type: LC-ESI-QFT
Ms type: MS2
Ion mode: POSITIVE
Ionization: ESI
Fragmentation mode: HCD
Collision energy: 120 % (nominal)
Resolution: 15000
Column name: XBridge C18 3.5um, 2.1x50mm, Waters
Retention time: 9.088 min
Base peak: 218.0133
Precursor m/z: 218.0134
Precursor type: [M+H]+
Precursor intensity: 275493768.62
m/z	relative intensity	assigned
57.0335	36	C3H5O+
65.0385	102	C5H5+
91.0415	33	C6H5N+
92.0494	144	C6H6N+
98.9994	10	C5H4Cl+
100.0073	132	C5H5Cl+
110.0602	16	C6H8NO+
127.0182	999	C6H6ClN+
