Mass spectrum: 1-Methyluric acid; LC-ESI-QFT; MS2; CE: 75%; R=17500; [M+H]+
Name: 1-Methyluric acid
Name: 1-methyl-7,9-dihydro-3H-purine-2,6,8-trione
Formula: C6H6N4O3
Exact mass: 182.0439901
SMILES: CN1C(=O)C2=C(NC(=O)N2)NC1=O
InChI: InChI=1S/C6H6N4O3/c1-10-4(11)2-3(9-6(10)13)8-5(12)7-2/h1H3,(H,9,13)(H2,7,8,12)
Instrument: Exploris 240 Orbitrap Thermo Scientific
Instrument type: LC-ESI-QFT
Ms type: MS2
Ion mode: POSITIVE
Ionization: ESI
Fragmentation mode: HCD
Collision energy: 75 % (nominal)
Resolution: 17500
Column name: XBridge C18 3.5um, 2.1x50mm, Waters
Retention time: 1.514 min
Base peak: 256.9597
Precursor m/z: 183.0513
Precursor type: [M+H]+
m/z	relative intensity	assigned
43.029	691	CH3N2+
44.0131	35	CH2NO+
55.029	421	C2H3N2+
58.0287	77	C2H4NO+
67.0292	23	C3H3N2+
69.0084	70	C2HN2O+
70.0399	622	C2H4N3+
83.0241	45	C3H3N2O+
84.0554	64	C3H6N3+
96.0192	271	C3H2N3O+
98.0348	365	C3H4N3O+
99.0189	19	C3H3N2O2+
109.0031	22	C4HN2O2+
124.0141	125	C4H2N3O2+
126.0297	999	C4H4N3O2+
128.0452	71	C4H6N3O2+
140.046	39	C5H6N3O2+
152.009	275	C5H2N3O3+
155.0562	877	C5H7N4O2+
183.0511	266	C6H7N4O3+
