Mass spectrum: Dimethenamid; LC-ESI-QFT; MS2; CE: 45%; R=15000; [M+H]+
Name: Dimethenamid
Name: 2-chloro-N-(2,4-dimethylthiophen-3-yl)-N-(1-methoxypropan-2-yl)acetamide
Formula: C12H18ClNO2S
Exact mass: 275.0746775
SMILES: COCC(C)N(C(=O)CCl)C1=C(C)SC=C1C
InChI: InChI=1S/C12H18ClNO2S/c1-8-7-17-10(3)12(8)14(11(15)5-13)9(2)6-16-4/h7,9H,5-6H2,1-4H3
Instrument: Q Exactive Plus
Instrument type: LC-ESI-QFT
Ms type: MS2
Ion mode: POSITIVE
Ionization: ESI
Fragmentation mode: HCD
Collision energy: 45 % (nominal)
Resolution: 15000
Column name: XBridge C18 3.5um, 2.1x50mm, Waters
Retention time: 8.898 min
Base peak: 276.0821
Precursor m/z: 276.082
Precursor type: [M+H]+
Precursor intensity: 856186615
m/z	relative intensity	assigned
73.0648	44	C4H9O+
76.9788	25	C2H2ClO+
111.0264	128	C6H7S+
125.0423	13	C7H9S+
126.0371	33	C6H8NS+
127.0575	10	C7H11S+
128.0528	12	C6H10NS+
135.1046	16	C9H13N+
138.037	17	C7H8NS+
151.0576	44	C9H11S+
152.0529	18	C8H10NS+
153.0242	13	C7H7NOS+
166.0681	16	C9H12NS+
167.0764	64	C9H13NS+
168.0842	871	C9H14NS+
186.0139	42	C8H9ClNS+
203.0166	35	C8H10ClNOS+
204.0246	17	C8H11ClNOS+
244.0558	999	C11H15ClNOS+
