Mass spectrum: Tebufenpyrad; LC-ESI-QFT; MS2; CE: 45%; R=15000; [M+H]+
Name: Tebufenpyrad
Name: N-[(4-tert-butylphenyl)methyl]-4-chloro-5-ethyl-2-methylpyrazole-3-carboxamide
Formula: C18H24ClN3O
Exact mass: 333.1607901
SMILES: CCC1=NN(C(=C1Cl)C(=O)NCC2=CC=C(C=C2)C(C)(C)C)C
InChI: InChI=1S/C18H24ClN3O/c1-6-14-15(19)16(22(5)21-14)17(23)20-11-12-7-9-13(10-8-12)18(2,3)4/h7-10H,6,11H2,1-5H3,(H,20,23)
Instrument: Exploris 240 Thermo Scientific
Instrument type: LC-ESI-QFT
Ms type: MS2
Ion mode: POSITIVE
Ionization: ESI
Fragmentation mode: HCD
Collision energy: 45 % (nominal)
Resolution: 15000
Column name: XBridge C18 3.5um, 2.1x50mm, Waters
Retention time: 13.410 min
Base peak: 334.1678
Precursor m/z: 334.1681
Precursor type: [M+H]+
m/z	relative intensity	assigned
57.0699	31	C4H9+
91.0542	51	C7H7+
105.0699	41	C8H9+
117.0213	205	C4H6ClN2+
119.0856	43	C9H11+
132.0932	25	C10H12+
145.0525	841	C6H10ClN2+
147.1166	535	C11H15+
171.0319	115	C7H8ClN2O+
200.0581	23	C8H11ClN3O+
334.1678	999	C18H25ClN3O+
