Mass spectrum: N-Methylpregabalin; LC-ESI-QFT; MS2; CE: 90%; R=17500; [M+H]+
Name: N-Methylpregabalin
Name: 5-methyl-3-[(methylazaniumyl)methyl]hexanoate
Formula: C9H19NO2
Exact mass: 173.1415788
SMILES: CC(C)CC(CC(=O)O)CNC
InChI: InChI=1S/C9H19NO2/c1-7(2)4-8(6-10-3)5-9(11)12/h7-8,10H,4-6H2,1-3H3,(H,11,12)
Instrument: Exploris 240 Orbitrap Thermo Scientific
Instrument type: LC-ESI-QFT
Ms type: MS2
Ion mode: POSITIVE
Ionization: ESI
Fragmentation mode: HCD
Collision energy: 90 % (nominal)
Resolution: 17500
Column name: XBridge C18 3.5um, 2.1x50mm, Waters
Retention time: 3.329 min
Base peak: 174.1486
Precursor m/z: 174.1489
Precursor type: [M+H]+
m/z	relative intensity	assigned
41.0384	38	C3H5+
43.0178	20	C2H3O+
43.054	19	C3H7+
44.0495	35	C2H6N+
45.0334	15	C2H5O+
55.0178	224	C3H3O+
55.0542	999	C4H7+
57.0699	89	C4H9+
58.0288	42	C2H4NO+
59.0491	79	C3H7O+
67.0543	15	C5H7+
69.0335	32	C4H5O+
69.0698	73	C5H9+
70.065	39	C4H8N+
79.0542	28	C6H7+
81.0698	24	C6H9+
82.0651	98	C5H8N+
83.0491	29	C5H7O+
83.0855	183	C6H11+
91.054	19	C7H7+
94.0652	9	C6H8N+
96.0807	18	C6H10N+
97.1011	33	C7H13+
99.068	15	C5H9NO+
138.1276	51	C9H16N+
156.1387	14	C9H18NO+
