Mass spectrum: 4-Desmethyltrimethoprim; LC-ESI-QFT; MS2; CE: 60%; R=17500; [M+H]+
Name: 4-Desmethyltrimethoprim
Name: 4-((2,4-Diaminopyrimidin-5-yl)methyl)-2,6-dimethoxyphenol
Name: 4-[(2,4-diaminopyrimidin-5-yl)methyl]-2,6-dimethoxyphenol
Formula: C13H16N4O3
Exact mass: 276.1222404
SMILES: COC1=CC(=CC(=C1O)OC)CC2=CN=C(N=C2N)N
InChI: InChI=1S/C13H16N4O3/c1-19-9-4-7(5-10(20-2)11(9)18)3-8-6-16-13(15)17-12(8)14/h4-6,18H,3H2,1-2H3,(H4,14,15,16,17)
Instrument: Exploris 240 Orbitrap Thermo Scientific
Instrument type: LC-ESI-QFT
Ms type: MS2
Ion mode: POSITIVE
Ionization: ESI
Fragmentation mode: HCD
Collision energy: 60 % (nominal)
Resolution: 17500
Column name: XBridge C18 3.5um, 2.1x50mm, Waters
Retention time: 2.197 min
Base peak: 277.1293
Precursor m/z: 277.1295
Precursor type: [M+H]+
m/z	relative intensity	assigned
60.0556	4	CH6N3+
81.0447	57	C4H5N2+
110.0589	14	C4H6N4+
111.0661	9	C4H7N4+
123.0665	485	C5H7N4+
124.074	11	C5H8N4+
158.0599	5	C10H8NO+
167.0703	21	C9H11O3+
187.0978	35	C10H11N4+
188.1055	39	C10H12N4+
215.0932	14	C11H11N4O+
216.1004	120	C11H12N4O+
219.0875	74	C10H11N4O2+
227.0929	8	C12H11N4O+
231.088	21	C11H11N4O2+
232.0955	81	C11H12N4O2+
233.1035	116	C11H13N4O2+
243.088	17	C12H11N4O2+
244.0958	11	C12H12N4O2+
245.1034	26	C12H13N4O2+
247.0823	68	C11H11N4O3+
261.0983	999	C12H13N4O3+
262.1061	131	C12H14N4O3+
277.1296	98	C13H17N4O3+
