Mass spectrum: Pyrimethamine; LC-ESI-QFT; MS2; CE: 90%; R=15000; [M+H]+
Name: Pyrimethamine
Name: 5-(4-chlorophenyl)-6-ethylpyrimidine-2,4-diamine
Formula: C12H13ClN4
Exact mass: 248.0828741
SMILES: CCC1=NC(N)=NC(N)=C1C1=CC=C(Cl)C=C1
InChI: InChI=1S/C12H13ClN4/c1-2-9-10(11(14)17-12(15)16-9)7-3-5-8(13)6-4-7/h3-6H,2H2,1H3,(H4,14,15,16,17)
Instrument: Q Exactive Plus
Instrument type: LC-ESI-QFT
Ms type: MS2
Ion mode: POSITIVE
Ionization: ESI
Fragmentation mode: HCD
Collision energy: 90 % (nominal)
Resolution: 15000
Column name: XBridge C18 3.5um, 2.1x50mm, Waters
Retention time: 5.158 min
Base peak: 249.0903
Precursor m/z: 249.0902
Precursor type: [M+H]+
Precursor intensity: 1238556926.84
m/z	relative intensity	assigned
56.0495	52	C3H6N+
86.9996	24	C4H4Cl+
93.0337	17	C3H8ClN+
103.0542	24	C8H7+
110.9995	12	C6H4Cl+
115.0542	58	C9H7+
117.0573	118	C8H7N+
122.9999	16	C7H4Cl+
125.0153	86	C7H6Cl+
127.054	50	C10H7+
128.0621	571	C10H8+
130.0651	24	C9H8N+
138.0109	15	C7H5ClN+
139.0058	184	C6H4ClN2+
140.0495	28	C10H6N+
142.0528	52	C9H6N2+
145.0648	133	C7H12ClN+
149.0154	41	C9H6Cl+
150.0106	57	C8H5ClN+
152.0263	54	C8H7ClN+
153.0574	23	C11H7N+
154.0652	153	C11H8N+
155.0603	164	C10H7N2+
155.073	106	C11H9N+
156.0681	81	C10H8N2+
157.0762	11	C10H9N2+
161.0028	71	C9H4ClN+
163.031	160	C10H8Cl+
164.0262	14	C9H7ClN+
169.0759	14	C11H9N2+
170.0598	10	C8H11ClN2+
174.0105	25	C10H5ClN+
177.0214	999	C9H6ClN2+
180.0556	11	C11H6N3+
181.0634	28	C11H7N3+
189.0214	40	C10H6ClN2+
190.0419	70	C11H9ClN+
191.037	17	C10H8ClN2+
196.0871	61	C12H10N3+
197.0815	54	C11H9N4+
198.0901	837	C11H10N4+
213.1132	29	C12H13N4+
216.0323	56	C11H7ClN3+
233.0589	925	C11H10ClN4+
249.0898	26	C12H14ClN4+
