Mass spectrum: 4-(2-Hydroxyethyl)morpholine; LC-ESI-QFT; MS2; CE: 120%; R=15000; [M+H]+
Name: 4-(2-Hydroxyethyl)morpholine
Name: 2-Morpholinoethanol
Name: 2-morpholin-4-ylethanol
Formula: C6H13NO2
Exact mass: 131.0946287
SMILES: C1COCCN1CCO
InChI: InChI=1S/C6H13NO2/c8-4-1-7-2-5-9-6-3-7/h8H,1-6H2
Instrument: Exploris 240 Thermo Scientific
Instrument type: LC-ESI-QFT
Ms type: MS2
Ion mode: POSITIVE
Ionization: ESI
Fragmentation mode: HCD
Collision energy: 120 % (nominal)
Resolution: 15000
Column name: XBridge C18 3.5um, 2.1x50mm, Waters
Retention time: 0.785 min
Base peak: 132.1015
Precursor m/z: 132.1019
Precursor type: [M+H]+
m/z	relative intensity	assigned
41.0385	66	C3H5+
42.0338	439	C2H4N+
43.0542	32	C3H7+
44.0494	202	C2H6N+
45.0334	956	C2H5O+
56.0494	51	C3H6N+
57.0573	38	C3H7N+
68.0493	93	C4H6N+
70.065	999	C4H8N+
84.0806	87	C5H10N+
88.0755	158	C4H10NO+
114.0911	160	C6H12NO+
132.1016	71	C6H14NO2+
