Mass spectrum: Nimesulide; LC-ESI-QFT; MS2; CE: 90%; R=17500; [M+H]+
Name: Nimesulide
Name: N-(4-nitro-2-phenoxyphenyl)methanesulfonamide
Formula: C13H12N2O5S
Exact mass: 308.046692484
SMILES: CS(=O)(=O)NC1=C(C=C(C=C1)[N+](=O)[O-])OC2=CC=CC=C2
InChI: InChI=1S/C13H12N2O5S/c1-21(18,19)14-12-8-7-10(15(16)17)9-13(12)20-11-5-3-2-4-6-11/h2-9,14H,1H3
Instrument: Exploris 240 Orbitrap Thermo Scientific
Instrument type: LC-ESI-QFT
Ms type: MS2
Ion mode: POSITIVE
Ionization: ESI
Fragmentation mode: HCD
Collision energy: 90 % (nominal)
Resolution: 17500
Column name: XBridge C18 3.5um, 2.1x50mm, Waters
Retention time: 7.676 min
Base peak: 132.9581
Precursor m/z: 309.054
Precursor type: [M+H]+
m/z	relative intensity	assigned
78.0338	29	C5H4N+
78.0466	35	C6H6+
104.0494	15	C7H6N+
127.0542	26	C10H7+
128.0497	31	C3H12O3S+
128.0624	94	C10H8+
129.0573	52	C9H7N+
129.0701	84	C10H9+
154.065	999	C11H8N+
155.0734	32	C11H9N+
156.0805	47	C11H10N+
182.0602	75	C12H8NO+
183.0679	92	C12H9NO+
