Mass spectrum: 1-Methylxanthine; LC-ESI-QFT; MS2; CE: 75%; R=17500; [M+H]+
Name: 1-Methylxanthine
Name: 1-methyl-3,7-dihydropurine-2,6-dione
Formula: C6H6N4O2
Exact mass: 166.0490754
SMILES: CN1C(=O)C2=C(NC1=O)N=CN2
InChI: InChI=1S/C6H6N4O2/c1-10-5(11)3-4(8-2-7-3)9-6(10)12/h2H,1H3,(H,7,8)(H,9,12)
Instrument: Exploris 240 Orbitrap Thermo Scientific
Instrument type: LC-ESI-QFT
Ms type: MS2
Ion mode: POSITIVE
Ionization: ESI
Fragmentation mode: HCD
Collision energy: 75 % (nominal)
Resolution: 17500
Column name: XBridge C18 3.5um, 2.1x50mm, Waters
Retention time: 1.738 min
Base peak: 167.0562
Precursor m/z: 167.0564
Precursor type: [M+H]+
m/z	relative intensity	assigned
55.029	109	C2H3N2+
82.0399	79	C3H4N3+
83.0239	20	C3H3N2O+
110.0348	999	C4H4N3O+
136.0141	11	C5H2N3O2+
167.0563	117	C6H7N4O2+
