Mass spectrum: Abacavir 5`-carboxylate; LC-ESI-QFT; MS2; CE: 60%; R=17500; [M-H]-
Name: Abacavir 5`-carboxylate
Name: 4-[2-amino-6-(cyclopropylamino)purin-9-yl]cyclopent-2-ene-1-carboxylic acid
Formula: C14H16N6O2
Exact mass: 300.1334738
SMILES: C1CC1NC2=C3C(=NC(=N2)N)N(C=N3)C4CC(C=C4)C(=O)O
InChI: InChI=1S/C14H16N6O2/c15-14-18-11(17-8-2-3-8)10-12(19-14)20(6-16-10)9-4-1-7(5-9)13(21)22/h1,4,6-9H,2-3,5H2,(H,21,22)(H3,15,17,18,19)
Instrument: Exploris 240 Orbitrap Thermo Scientific
Instrument type: LC-ESI-QFT
Ms type: MS2
Ion mode: NEGATIVE
Ionization: ESI
Fragmentation mode: HCD
Collision energy: 60 % (nominal)
Resolution: 17500
Column name: XBridge C18 3.5um, 2.1x50mm, Waters
Retention time: 3.380 min
Base peak: 299.1261
Precursor m/z: 299.1262
Precursor type: [M-H]-
m/z	relative intensity	assigned
66.0098	85	C2N3-
66.035	33	C4H4N-
81.0458	23	C4H5N2-
82.0409	16	C3H4N3-
93.0458	30	C5H5N2-
106.0284	160	C4H2N4-
107.0363	267	C4H3N4-
120.0568	60	C6H6N3-
131.0238	36	C5HN5-
132.0316	347	C5H2N5-
134.0475	14	C5H4N5-
147.0676	225	C7H7N4-
148.0503	316	C5H4N6-
149.058	14	C5H5N6-
161.0579	25	C6H5N6-
172.0631	20	C8H6N5-
189.0894	999	C8H9N6-
