Mass spectrum: Procymidone; LC-ESI-QFT; MS2; CE: 75%; R=15000; [M+H]+
Name: Procymidone
Name: 3-(3,5-dichlorophenyl)-1,5-dimethyl-3-azabicyclo[3.1.0]hexane-2,4-dione
Formula: C13H11Cl2NO2
Exact mass: 283.016684
SMILES: CC12CC1(C)C(=O)N(C2=O)C1=CC(Cl)=CC(Cl)=C1
InChI: InChI=1S/C13H11Cl2NO2/c1-12-6-13(12,2)11(18)16(10(12)17)9-4-7(14)3-8(15)5-9/h3-5H,6H2,1-2H3
Instrument: Q Exactive Plus
Instrument type: LC-ESI-QFT
Ms type: MS2
Ion mode: POSITIVE
Ionization: ESI
Fragmentation mode: HCD
Collision energy: 75 % (nominal)
Resolution: 15000
Column name: XBridge C18 3.5um, 2.1x50mm, Waters
Retention time: 10.266 min
Base peak: 164.9846
Precursor m/z: 284.024
Precursor type: [M+H]+
Precursor intensity: 4449333.2
m/z	relative intensity	assigned
65.0386	172	C5H5+
67.0543	999	C5H7+
69.07	32	C5H9+
84.9839	30	C4H2Cl+
85.0648	32	C5H9O+
95.0492	142	C6H7O+
151.0184	40	C8H6ClN+
160.9795	15	C6H5Cl2N+
162.9709	53	C6H5Cl2O+
164.0258	64	C12H4O+
165.0338	38	C9H8ClN+
171.9714	100	C7H4Cl2N+
172.9669	183	C9ClNO+
173.9874	26	C7H6Cl2N+
178.0418	140	C10H9ClN+
188.0269	21	C11H7ClN+
192.0574	44	C11H11ClN+
197.987	78	C9H6Cl2N+
212.0028	91	C10H8Cl2N+
238.0185	207	C12H10Cl2N+
