Mass spectrum: Pramiracetam; LC-ESI-QFT; MS2; CE: 75%; R=17500; [M+H]+
Name: Pramiracetam
Name: N-[2-[di(propan-2-yl)amino]ethyl]-2-(2-oxopyrrolidin-1-yl)acetamide
Formula: C14H27N3O2
Exact mass: 269.210327104
SMILES: CC(C)N(CCNC(=O)CN1CCCC1=O)C(C)C
InChI: InChI=1S/C14H27N3O2/c1-11(2)17(12(3)4)9-7-15-13(18)10-16-8-5-6-14(16)19/h11-12H,5-10H2,1-4H3,(H,15,18)
Instrument: Exploris 240 Orbitrap Thermo Scientific
Instrument type: LC-ESI-QFT
Ms type: MS2
Ion mode: POSITIVE
Ionization: ESI
Fragmentation mode: HCD
Collision energy: 75 % (nominal)
Resolution: 17500
Column name: XBridge C18 3.5um, 2.1x50mm, Waters
Retention time: 1.856 min
Base peak: 270.2173
Precursor m/z: 270.2176
Precursor type: [M+H]+
m/z	relative intensity	assigned
68.0494	7	C4H6N+
69.0335	20	C4H5O+
70.0651	112	C4H8N+
86.0966	30	C5H12N+
98.06	999	C5H8NO+
102.1279	4	C6H16N+
125.071	5	C6H9N2O+
128.1433	13	C8H18N+
168.1129	6	C8H14N3O+
169.0971	102	C8H13N2O2+
