Mass spectrum: Mirabegron; LC-ESI-QFT; MS2; CE: 75%; R=15000; [M+H]+
Name: Mirabegron
Name: (S)-Mirabegron
Name: 2-(2-azanyl-1,3-thiazol-4-yl)-N-[4-[2-[[(2R)-2-oxidanyl-2-phenyl-ethyl]amino]ethyl]phenyl]ethanamide
Formula: C21H24N4O2S
Exact mass: 396.161997
SMILES: C1=CC=C(C=C1)C(CNCCC2=CC=C(C=C2)NC(=O)CC3=CSC(=N3)N)O
InChI: InChI=1S/C21H24N4O2S/c22-21-25-18(14-28-21)12-20(27)24-17-8-6-15(7-9-17)10-11-23-13-19(26)16-4-2-1-3-5-16/h1-9,14,19,23,26H,10-13H2,(H2,22,25)(H,24,27)
Instrument: Q Exactive
Instrument type: LC-ESI-QFT
Ms type: MS2
Ion mode: POSITIVE
Ionization: ESI
Fragmentation mode: HCD
Collision energy: 75 % (nominal)
Resolution: 15000
Column name: XBridge C18 3.5um, 2.1x50mm, Waters
Retention time: 3.052 min
Base peak: 190.083
Precursor m/z: 397.1693
Precursor type: [M+H]+
Precursor intensity: 21474486.95
m/z	relative intensity	assigned
69.0447	47	C3H5N2+
70.995	162	C3H3S+
86.0059	68	C3H4NS+
91.0543	147	C7H7+
93.0573	39	C6H7N+
93.0699	46	C7H9+
94.065	32	C6H8N+
95.0491	49	C6H7O+
103.0542	211	C8H7+
113.0167	842	C4H5N2S+
115.0324	50	C4H7N2S+
117.0571	30	C8H7N+
118.0651	196	C8H8N+
120.0807	999	C8H10N+
128.0494	503	C9H6N+
129.045	11	C8H5N2+
141.0118	40	C5H5N2OS+
146.06	518	C9H8NO+
182.0837	18	C12H10N2+
