Mass spectrum: 3-(3,5-Dichlorophenyl)-N-(1-methylethyl)-2,4-dioxo-1-imidazolidinecarboxamide; LC-ESI-QFT; MS2; CE: 150%; R=15000; [M+H]+
Name: 3-(3,5-Dichlorophenyl)-N-(1-methylethyl)-2,4-dioxo-1-imidazolidinecarboxamide
Name: Iprodione
Name: 3-(3,5-dichlorophenyl)-2,4-dioxo-N-propan-2-ylimidazolidine-1-carboxamide
Formula: C13H13Cl2N3O3
Exact mass: 329.0333966
SMILES: CC(C)NC(=O)N1CC(=O)N(C1=O)C1=CC(Cl)=CC(Cl)=C1
InChI: InChI=1S/C13H13Cl2N3O3/c1-7(2)16-12(20)17-6-11(19)18(13(17)21)10-4-8(14)3-9(15)5-10/h3-5,7H,6H2,1-2H3,(H,16,20)
Instrument: Q Exactive Plus
Instrument type: LC-ESI-QFT
Ms type: MS2
Ion mode: POSITIVE
Ionization: ESI
Fragmentation mode: HCD
Collision energy: 150 % (nominal)
Resolution: 15000
Column name: XBridge C18 3.5um, 2.1x50mm, Waters
Retention time: 10.931 min
Base peak: 164.9846
Precursor m/z: 330.0407
Precursor type: [M+H]+
Precursor intensity: 12843620.78
m/z	relative intensity	assigned
50.015	34	C4H2+
51.0229	134	C4H3+
53.002	23	C3HO+
53.0385	19	C4H5+
56.0131	756	C2H2NO+
63.0229	159	C5H3+
65.0386	111	C5H5+
72.9839	153	C3H2Cl+
74.0151	999	C6H2+
75.0229	519	C6H3+
81.0335	57	C5H5O+
82.9449	35	CHCl2+
84.9839	41	C4H2Cl+
86.9633	157	C3ClO+
86.9998	24	C4H4Cl+
90.0338	234	C6H4N+
92.0496	85	C6H6N+
98.9995	65	C5H4Cl+
100.0072	77	C5H5Cl+
102.0337	50	C7H4N+
104.0496	115	C7H6N+
108.984	943	C6H2Cl+
109.9918	46	C6H3Cl+
110.9999	42	C6H4Cl+
123.9947	50	C6H3ClN+
125.0028	232	C6H4ClN+
127.0184	244	C6H6ClN+
129.01	162	C6H6ClO+
130.04	48	C7H4N3+
132.9607	107	C5H3Cl2+
138.0105	335	C7H5ClN+
139.0057	176	C6H4ClN2+
144.9603	40	C6H3Cl2+
145.9685	65	C6H4Cl2+
172.9667	64	C6H3Cl2N2+
