Mass spectrum: Pyridate; LC-ESI-QFT; MS2; CE: 120%; R=15000; [M+H]+
Name: Pyridate
Name: (6-chloro-3-phenylpyridazin-4-yl) octylsulfanylformate
Formula: C19H23ClN2O2S
Exact mass: 378.1168767
SMILES: CCCCCCCCSC(=O)OC1=CC(Cl)=NN=C1C1=CC=CC=C1
InChI: InChI=1S/C19H23ClN2O2S/c1-2-3-4-5-6-10-13-25-19(23)24-16-14-17(20)21-22-18(16)15-11-8-7-9-12-15/h7-9,11-12,14H,2-6,10,13H2,1H3
Instrument: Q Exactive Plus
Instrument type: LC-ESI-QFT
Ms type: MS2
Ion mode: POSITIVE
Ionization: ESI
Fragmentation mode: HCD
Collision energy: 120 % (nominal)
Resolution: 15000
Column name: XBridge C18 3.5um, 2.1x50mm, Waters
Retention time: 16.445 min
Base peak: 379.1244
Precursor m/z: 379.1242
Precursor type: [M+H]+
Precursor intensity: 282888817.6
m/z	relative intensity	assigned
50.0151	76	C4H2+
51.023	209	C4H3+
53.0386	216	C4H5+
55.0178	12	C3H3O+
55.0542	17	C4H7+
57.07	32	C4H9+
61.9792	145	CHClN+
65.0386	10	C5H5+
68.0131	999	C3H2NO+
76.0307	13	C6H4+
77.0385	169	C6H5+
81.0335	17	C5H5O+
89.0387	19	C7H5+
95.0492	628	C6H7O+
103.9898	18	C3H3ClNO+
104.0494	87	C7H6N+
105.0448	178	C6H5N2+
115.0541	41	C9H7+
117.0576	10	C8H7N+
126.0464	234	C10H6+
