Mass spectrum: 2-Acetylpyrazine; LC-ESI-QFT; MS2; CE: 180%; R=17500; [M+H]+
Name: 2-Acetylpyrazine
Name: Acetylpyrazine
Name: 1-pyrazin-2-ylethanone
Formula: C6H6N2O
Exact mass: 122.0480128
SMILES: CC(=O)C1=NC=CN=C1
InChI: InChI=1S/C6H6N2O/c1-5(9)6-4-7-2-3-8-6/h2-4H,1H3
Instrument: Exploris 240 Orbitrap Thermo Scientific
Instrument type: LC-ESI-QFT
Ms type: MS2
Ion mode: POSITIVE
Ionization: ESI
Fragmentation mode: HCD
Collision energy: 180 % (nominal)
Resolution: 17500
Column name: XBridge C18 3.5um, 2.1x50mm, Waters
Retention time: 2.489 min
Base peak: 132.9582
Precursor m/z: 123.0553
Precursor type: [M+H]+
m/z	relative intensity	assigned
43.0178	451	C2H3O+
51.0229	40	C4H3+
52.0182	407	C3H2N+
53.026	79	C3H3N+
54.0338	999	C3H4N+
79.0291	25	C4H3N2+
80.0369	48	C4H4N2+
81.0447	670	C4H5N2+
97.0396	13	C4H5N2O+
