Mass spectrum: Metconazole; LC-ESI-QFT; MS2; CE: 45%; R=15000; [M+H]+
Name: Metconazole
Name: 5-[(4-chlorophenyl)methyl]-2,2-dimethyl-1-(1,2,4-triazol-1-ylmethyl)cyclopentan-1-ol
Formula: C17H22ClN3O
Exact mass: 319.14514
SMILES: CC1(C)CCC(CC2=CC=C(Cl)C=C2)C1(O)CN1C=NC=N1
InChI: InChI=1S/C17H22ClN3O/c1-16(2)8-7-14(9-13-3-5-15(18)6-4-13)17(16,22)10-21-12-19-11-20-21/h3-6,11-12,14,22H,7-10H2,1-2H3
Instrument: Q Exactive Plus
Instrument type: LC-ESI-QFT
Ms type: MS2
Ion mode: POSITIVE
Ionization: ESI
Fragmentation mode: HCD
Collision energy: 45 % (nominal)
Resolution: 15000
Column name: XBridge C18 3.5um, 2.1x50mm, Waters
Retention time: 12.152 min
Base peak: 320.1526
Precursor m/z: 320.1524
Precursor type: [M+H]+
Precursor intensity: 865316371.09
m/z	relative intensity	assigned
70.04	999	C2H4N3+
95.0855	14	C7H11+
125.0153	67	C7H6Cl+
177.0464	12	C11H10Cl+
