Mass spectrum: Selamectin; LC-ESI-QFT; MS2; CE: 15%; R=17500; [M+H]+
Name: Selamectin
Name: 6`-cyclohexyl-24-hydroxy-21-hydroxyimino-12-(5-hydroxy-4-methoxy-6-methyloxan-2-yl)oxy-5`,11,13,22-tetramethylspiro[3,7,19-trioxatetracyclo[15.6.1.14,8.020,24]pentacosa-10,14,16,22-tetraene-6,2`-oxane]-2-one
Formula: C43H63NO11
Exact mass: 769.440111836
SMILES: CC1CCC2(CC3CC(O2)CC=C(C(C(C=CC=C4COC5C4(C(C=C(C5=NO)C)C(=O)O3)O)C)OC6CC(C(C(O6)C)O)OC)C)OC1C7CCCCC7
InChI: InChI=1S/C43H63NO11/c1-24-11-10-14-30-23-50-40-36(44-48)27(4)19-33(43(30,40)47)41(46)52-32-20-31(16-15-25(2)38(24)53-35-21-34(49-6)37(45)28(5)51-35)54-42(22-32)18-17-26(3)39(55-42)29-12-8-7-9-13-29/h10-11,14-15,19,24,26,28-29,31-35,37-40,45,47-48H,7-9,12-13,16-18,20-23H2,1-6H3
Instrument: Exploris 240 Orbitrap Thermo Scientific
Instrument type: LC-ESI-QFT
Ms type: MS2
Ion mode: POSITIVE
Ionization: ESI
Fragmentation mode: HCD
Collision energy: 15 % (nominal)
Resolution: 17500
Column name: XBridge C18 3.5um, 2.1x50mm, Waters
Retention time: 17.448 min
Base peak: 111.0205
Precursor m/z: 770.4474
Precursor type: [M+H]+
m/z	relative intensity	assigned
81.0701	10	C6H9+
95.0495	20	C6H7O+
99.0803	6	C6H11O+
109.1012	8	C8H13+
113.0596	74	C6H9O2+
137.096	49	C9H13O+
145.0857	154	C7H13O3+
151.0752	91	C9H11O2+
161.1327	16	C12H17+
189.1634	8	C14H21+
193.1223	8	C12H17O2+
197.1536	14	C12H21O2+
203.1791	140	C15H23+
217.1582	33	H27NO11+
221.1898	176	C15H25O+
231.1737	6	C16H23O+
249.1848	44	C16H25O2+
258.1123	16	C15H16NO3+
274.1075	19	C15H16NO4+
276.1226	231	C15H18NO4+
294.1335	122	C15H20NO5+
297.2219	23	C21H29O+
333.2422	566	C21H33O3+
360.181	20	C20H26NO5+
388.1752	70	C21H26NO6+
412.2114	82	C24H30NO5+
590.3472	107	C36H48NO6+
608.3579	999	C36H50NO7+
