Mass spectrum: 5-Chloro-2-methyl-3(2H)-isothiazolone; LC-ESI-QFT; MS2; CE: 60%; R=15000; [M+H]+
Name: 5-Chloro-2-methyl-3(2H)-isothiazolone
Name: 5-Chloro-2-methyl-4-isothiazolin-3-one
Name: 5-chloro-2-methyl-1,2-thiazol-3-one
Formula: C4H4ClNOS
Exact mass: 148.9702124
SMILES: CN1SC(Cl)=CC1=O
InChI: InChI=1S/C4H4ClNOS/c1-6-4(7)2-3(5)8-6/h2H,1H3
Instrument: Q Exactive Plus
Instrument type: LC-ESI-QFT
Ms type: MS2
Ion mode: POSITIVE
Ionization: ESI
Fragmentation mode: HCD
Collision energy: 60 % (nominal)
Resolution: 15000
Column name: XBridge C18 3.5um, 2.1x50mm, Waters
Retention time: 3.393 min
Base peak: 149.9776
Precursor m/z: 149.9775
Precursor type: [M+H]+
Precursor intensity: 734386484.33
m/z	relative intensity	assigned
58.0287	35	C2H4NO+
58.995	24	C2H3S+
59.9903	16	CH2NS+
67.0179	10	C4H3O+
70.995	37	C3H3S+
78.0105	21	C2H5ClN+
78.9404	13	CClS+
86.0059	23	C3H4NS+
92.956	11	C2H2ClS+
94.9717	20	C2H4ClS+
95.9903	54	C4H2NS+
102.9945	19	C4H4ClO+
104.9561	38	C3H2ClS+
106.0057	13	C3H5ClNO+
106.9717	32	C3H4ClS+
115.0086	104	C4H5NOS+
118.9353	67	C3ClOS+
120.951	29	C3H2ClOS+
132.9509	14	C4H2ClOS+
134.954	53	C3H2ClNOS+
149.9775	999	C4H5ClNOS+
