Mass spectrum: PFEtS; LC-ESI-QFT; MS2; CE: 30%; R=17500; [M-H]-
Name: PFEtS
Name: Pentafluoroethanesulfonic acid
Name: 1,1,2,2,2-pentafluoroethanesulfonic acid
Formula: C2HF5O3S
Exact mass: 199.956655992
SMILES: C(C(F)(F)S(=O)(=O)O)(F)(F)F
InChI: InChI=1S/C2HF5O3S/c3-1(4,5)2(6,7)11(8,9)10/h(H,8,9,10)
Instrument: Exploris 240 Orbitrap Thermo Scientific
Instrument type: LC-ESI-QFT
Ms type: MS2
Ion mode: NEGATIVE
Ionization: ESI
Fragmentation mode: HCD
Collision energy: 30 % (nominal)
Resolution: 17500
Column name: XBridge C18 3.5um, 2.1x50mm, Waters
Retention time: 2.768 min
Base peak: 198.9493
Precursor m/z: 198.9494
Precursor type: [M-H]-
m/z	relative intensity	assigned
79.9574	16	O3S-
198.9494	999	C2F5O3S-
