Mass spectrum: Apalutamide; LC-ESI-QFT; MS2; CE: 75%; R=15000; [M-H]-
Name: Apalutamide
Name: 4-[7-[6-cyano-5-(trifluoromethyl)pyridin-3-yl]-8-oxo-6-sulfanylidene-5,7-diazaspiro[3.4]octan-5-yl]-2-fluoro-N-methylbenzamide
Name: 4-[7-[6-cyano-5-(trifluoromethyl)pyridin-3-yl]-8-oxidanylidene-6-sulfanylidene-5,7-diazaspiro[3.4]octan-5-yl]-2-fluoranyl-N-methyl-benzamide
Formula: C21H15F4N5O2S
Exact mass: 477.0882586
SMILES: CNC(=O)C1=C(C=C(C=C1)N2C(=S)N(C(=O)C23CCC3)C4=CC(=C(N=C4)C#N)C(F)(F)F)F
InChI: InChI=1S/C21H15F4N5O2S/c1-27-17(31)13-4-3-11(8-15(13)22)30-19(33)29(18(32)20(30)5-2-6-20)12-7-14(21(23,24)25)16(9-26)28-10-12/h3-4,7-8,10H,2,5-6H2,1H3,(H,27,31)
Instrument: Q Exactive
Instrument type: LC-ESI-QFT
Ms type: MS2
Ion mode: NEGATIVE
Ionization: ESI
Fragmentation mode: HCD
Collision energy: 75 % (nominal)
Resolution: 15000
Column name: XBridge C18 3.5um, 2.1x50mm, Waters
Retention time: 8.921 min
Base peak: 522.0874
Precursor m/z: 476.081
Precursor type: [M-H]-
Precursor intensity: 10089784.84
m/z	relative intensity	assigned
57.9757	802	CNS-
114.035	999	C8H4N-
134.0412	87	C8H5FN-
142.0298	293	C9H4NO-
176.0064	16	C8F2N3-
186.0286	110	C12H4F2-
202.9898	84	C7H2F3N2S-
210.0287	81	C14H4F2-
238.0234	121	C10H3F3N3O-
