Mass spectrum: Prallethrin; LC-ESI-QFT; MS2; CE: 90%; R=15000; [M+H]+
Name: Prallethrin
Name: (2-methyl-4-oxo-3-prop-2-ynylcyclopent-2-en-1-yl) 2,2-dimethyl-3-(2-methylprop-1-enyl)cyclopropane-1-carboxylate
Formula: C19H24O3
Exact mass: 300.1725446
SMILES: CC1=C(C(=O)CC1OC(=O)C2C(C2(C)C)C=C(C)C)CC#C
InChI: InChI=1S/C19H24O3/c1-7-8-13-12(4)16(10-15(13)20)22-18(21)17-14(9-11(2)3)19(17,5)6/h1,9,14,16-17H,8,10H2,2-6H3
Instrument: Exploris 240 Thermo Scientific
Instrument type: LC-ESI-QFT
Ms type: MS2
Ion mode: POSITIVE
Ionization: ESI
Fragmentation mode: HCD
Collision energy: 90 % (nominal)
Resolution: 15000
Column name: XBridge C18 3.5um, 2.1x50mm, Waters
Retention time: 12.520 min
Base peak: 301.1796
Precursor m/z: 301.1798
Precursor type: [M+H]+
m/z	relative intensity	assigned
51.0229	68	C4H3+
53.0385	69	C4H5+
55.0178	84	C3H3O+
55.0542	81	C4H7+
57.0699	34	C4H9+
59.0492	43	C3H7O+
65.0386	72	C5H5+
67.0542	133	C5H7+
69.0698	67	C5H9+
77.0385	606	C6H5+
79.0542	999	C6H7+
81.0698	340	C6H9+
91.0544	69	C7H7+
94.0414	22	C6H6O+
95.0491	392	C6H7O+
103.0541	441	C8H7+
105.0698	258	C8H9+
115.0542	67	C9H7+
123.117	19	C9H15+
