Mass spectrum: Nimesulide; LC-ESI-QFT; MS2; CE: 120%; R=17500; [M-H]-
Name: Nimesulide
Name: N-(4-nitro-2-phenoxyphenyl)methanesulfonamide
Formula: C13H12N2O5S
Exact mass: 308.046692484
SMILES: CS(=O)(=O)NC1=C(C=C(C=C1)[N+](=O)[O-])OC2=CC=CC=C2
InChI: InChI=1S/C13H12N2O5S/c1-21(18,19)14-12-8-7-10(15(16)17)9-13(12)20-11-5-3-2-4-6-11/h2-9,14H,1H3
Instrument: Exploris 240 Orbitrap Thermo Scientific
Instrument type: LC-ESI-QFT
Ms type: MS2
Ion mode: NEGATIVE
Ionization: ESI
Fragmentation mode: HCD
Collision energy: 120 % (nominal)
Resolution: 17500
Column name: XBridge C18 3.5um, 2.1x50mm, Waters
Retention time: 7.689 min
Base peak: 307.0393
Precursor m/z: 307.0394
Precursor type: [M-H]-
m/z	relative intensity	assigned
50.0036	13	C3N-
63.9624	999	O2S-
65.0033	21	C4HO-
66.035	29	C4H4N-
76.0193	27	C5H2N-
78.986	117	CH3O2S-
79.0191	22	C5H3O-
80.0143	11	C4H2NO-
91.0193	32	C6H3O-
94.0297	53	C5H4NO-
95.0142	26	C5H3O2-
116.0506	80	C8H6N-
122.0247	219	C6H4NO2-
128.0509	9	C9H6N-
140.0503	47	C10H6N-
142.0664	101	C10H8N-
170.0614	19	C11H8NO-
