Mass spectrum: Valeryl-4-hydroxyvalsartan; LC-ESI-QFT; MS2; CE: 150%; R=17500; [M+H]+
Name: Valeryl-4-hydroxyvalsartan
Name: 2-[4-hydroxypentanoyl-[[4-[2-(2H-tetrazol-5-yl)phenyl]phenyl]methyl]amino]-3-methylbutanoic acid
Formula: C24H29N5O4
Exact mass: 451.2219544
SMILES: CC(C)C(C(=O)O)N(CC1=CC=C(C=C1)C2=CC=CC=C2C3=NNN=N3)C(=O)CCC(C)O
InChI: InChI=1S/C24H29N5O4/c1-15(2)22(24(32)33)29(21(31)13-8-16(3)30)14-17-9-11-18(12-10-17)19-6-4-5-7-20(19)23-25-27-28-26-23/h4-7,9-12,15-16,22,30H,8,13-14H2,1-3H3,(H,32,33)(H,25,26,27,28)
Instrument: Exploris 240 Orbitrap Thermo Scientific
Instrument type: LC-ESI-QFT
Ms type: MS2
Ion mode: POSITIVE
Ionization: ESI
Fragmentation mode: HCD
Collision energy: 150 % (nominal)
Resolution: 17500
Column name: XBridge C18 3.5um, 2.1x50mm, Waters
Retention time: 6.688 min
Base peak: 452.2288
Precursor m/z: 452.2292
Precursor type: [M+H]+
m/z	relative intensity	assigned
50.0152	15	C4H2+
51.0228	127	C4H3+
55.0543	62	C4H7+
63.0231	77	C5H3+
75.023	69	C6H3+
77.0386	215	C6H5+
78.0466	36	C6H6+
87.0231	22	C7H3+
89.0385	103	C7H5+
95.0493	44	C6H7O+
101.039	27	C8H5+
105.045	56	C6H5N2+
113.0386	120	C9H5+
114.0343	33	C8H4N+
114.0466	45	C9H6+
115.0542	129	C9H7+
125.0389	62	C10H5+
126.0462	113	C10H6+
127.0542	138	C10H7+
128.0623	61	C10H8+
129.0449	33	C8H5N2+
137.0386	100	C11H5+
138.0469	57	C11H6+
139.0541	191	C11H7+
140.0497	182	C10H6N+
145.0652	29	C10H9O+
150.0463	249	C12H6+
151.0543	491	C12H7+
152.0621	999	C12H8+
153.0574	45	C11H7N+
155.0604	80	C10H7N2+
162.0467	68	C13H6+
163.0544	416	C13H7+
169.0646	178	C12H9O+
176.0623	303	C14H8+
179.0599	166	C12H7N2+
188.0492	94	C14H6N+
189.0574	50	C14H7N+
190.0654	208	C14H8N+
205.0765	105	C14H9N2+
