Mass spectrum: Prosulfuron; LC-ESI-QFT; MS2; CE: 60%; R=15000; [M-H]-
Name: Prosulfuron
Name: 1-(4-methoxy-6-methyl-1,3,5-triazin-2-yl)-3-[2-(3,3,3-trifluoropropyl)phenyl]sulfonylurea
Formula: C15H16F3N5O4S
Exact mass: 419.0875097
SMILES: COC1=NC(C)=NC(NC(=O)NS(=O)(=O)C2=C(CCC(F)(F)F)C=CC=C2)=N1
InChI: InChI=1S/C15H16F3N5O4S/c1-9-19-12(22-14(20-9)27-2)21-13(24)23-28(25,26)11-6-4-3-5-10(11)7-8-15(16,17)18/h3-6H,7-8H2,1-2H3,(H2,19,20,21,22,23,24)
Instrument: Q Exactive Plus
Instrument type: LC-ESI-QFT
Ms type: MS2
Ion mode: NEGATIVE
Ionization: ESI
Fragmentation mode: HCD
Collision energy: 60 % (nominal)
Resolution: 15000
Column name: XBridge C18 3.5um, 2.1x50mm, Waters
Retention time: 9.096 min
Base peak: 418.0802
Precursor m/z: 418.0802
Precursor type: [M-H]-
Precursor intensity: 208027047.98
m/z	relative intensity	assigned
55.0301	54	C2H3N2-
65.0145	26	C3HN2-
66.0097	52	C2N3-
82.0411	85	C3H4N3-
107.0364	173	C4H3N4-
109.052	33	C4H5N4-
124.0391	30	C4H4N4O-
128.0505	20	C9H6N-
139.0625	999	C5H7N4O-
