Mass spectrum: 12-Hydroxynevirapine; LC-ESI-QFT; MS2; CE: 90%; R=17500; [M+H]+
Name: 12-Hydroxynevirapine
Name: 2-cyclopropyl-7-(hydroxymethyl)-2,4,9,15-tetrazatricyclo[9.4.0.03,8]pentadeca-1(11),3,5,7,12,14-hexaen-10-one
Formula: C15H14N4O2
Exact mass: 282.1116757
SMILES: C1CC1N2C3=C(C=CC=N3)C(=O)NC4=C(C=CN=C42)CO
InChI: InChI=1S/C15H14N4O2/c20-8-9-5-7-17-14-12(9)18-15(21)11-2-1-6-16-13(11)19(14)10-3-4-10/h1-2,5-7,10,20H,3-4,8H2,(H,18,21)
Instrument: Exploris 240 Orbitrap Thermo Scientific
Instrument type: LC-ESI-QFT
Ms type: MS2
Ion mode: POSITIVE
Ionization: ESI
Fragmentation mode: HCD
Collision energy: 90 % (nominal)
Resolution: 17500
Column name: XBridge C18 3.5um, 2.1x50mm, Waters
Retention time: 4.006 min
Base peak: 283.1185
Precursor m/z: 283.119
Precursor type: [M+H]+
m/z	relative intensity	assigned
51.0229	26	C4H3+
68.0494	30	C4H6N+
78.0338	229	C5H4N+
79.0414	22	C5H5N+
91.0543	22	C7H7+
93.0447	81	C5H5N2+
96.0446	52	C5H6NO+
103.0291	104	C6H3N2+
105.0445	83	C6H5N2+
116.0495	80	C8H6N+
117.0453	17	C7H5N2+
117.0572	36	C8H7N+
118.0528	43	C7H6N2+
118.0654	35	C8H8N+
121.0398	107	C6H5N2O+
131.0241	48	C7H3N2O+
133.0761	63	C8H9N2+
141.0447	35	C9H5N2+
143.0607	59	C9H7N2+
144.0559	31	C8H6N3+
145.0766	27	C9H9N2+
155.0601	88	C10H7N2+
161.0711	76	C9H9N2O+
168.0557	140	C10H6N3+
169.063	165	C10H7N3+
182.0713	807	C11H8N3+
183.0788	195	C11H9N3+
194.0723	47	C14H10O+
196.074	999	C11H8N4+
197.0598	35	C13H9O2+
197.0818	329	C11H9N4+
198.066	57	C11H8N3O+
207.0801	27	C13H9N3+
213.0779	48	C13H11NO2+
220.0874	47	C14H10N3+
221.082	392	C13H9N4+
222.0915	163	C15H12NO+
223.062	487	C12H7N4O+
223.1099	341	C14H13N3+
224.07	33	C12H8N4O+
225.0767	76	C12H9N4O+
235.0981	67	C14H11N4+
237.1136	67	C14H13N4+
250.0861	41	C14H10N4O+
265.1089	60	C15H13N4O+
