Mass spectrum: 1-Methyluric acid; LC-ESI-QFT; MS2; CE: 60%; R=17500; [M+H]+
Name: 1-Methyluric acid
Name: 1-methyl-7,9-dihydro-3H-purine-2,6,8-trione
Formula: C6H6N4O3
Exact mass: 182.0439901
SMILES: CN1C(=O)C2=C(NC(=O)N2)NC1=O
InChI: InChI=1S/C6H6N4O3/c1-10-4(11)2-3(9-6(10)13)8-5(12)7-2/h1H3,(H,9,13)(H2,7,8,12)
Instrument: Exploris 240 Orbitrap Thermo Scientific
Instrument type: LC-ESI-QFT
Ms type: MS2
Ion mode: POSITIVE
Ionization: ESI
Fragmentation mode: HCD
Collision energy: 60 % (nominal)
Resolution: 17500
Column name: XBridge C18 3.5um, 2.1x50mm, Waters
Retention time: 1.514 min
Base peak: 256.9597
Precursor m/z: 183.0513
Precursor type: [M+H]+
m/z	relative intensity	assigned
43.029	172	CH3N2+
55.029	72	C2H3N2+
58.0286	13	C2H4NO+
70.04	175	C2H4N3+
83.0241	11	C3H3N2O+
84.0557	19	C3H6N3+
96.019	46	C3H2N3O+
98.0349	199	C3H4N3O+
124.0144	34	C4H2N3O2+
126.0298	652	C4H4N3O2+
128.045	37	C4H6N3O2+
140.0454	27	C5H6N3O2+
152.0091	168	C5H2N3O3+
155.0563	999	C5H7N4O2+
165.0414	11	C6H5N4O2+
183.0513	745	C6H7N4O3+
