Mass spectrum: Lercanidipine; LC-ESI-QFT; MS2; CE: 120%; R=17500; [M+H]+
Name: Lercanidipine
Name: 5-O-[1-[3,3-diphenylpropyl(methyl)amino]-2-methylpropan-2-yl] 3-O-methyl 2,6-dimethyl-4-(3-nitrophenyl)-1,4-dihydropyridine-3,5-dicarboxylate
Formula: C36H41N3O6
Exact mass: 611.299536032
SMILES: CC1=C(C(C(=C(N1)C)C(=O)OC(C)(C)CN(C)CCC(C2=CC=CC=C2)C3=CC=CC=C3)C4=CC(=CC=C4)[N+](=O)[O-])C(=O)OC
InChI: InChI=1S/C36H41N3O6/c1-24-31(34(40)44-6)33(28-18-13-19-29(22-28)39(42)43)32(25(2)37-24)35(41)45-36(3,4)23-38(5)21-20-30(26-14-9-7-10-15-26)27-16-11-8-12-17-27/h7-19,22,30,33,37H,20-21,23H2,1-6H3
Instrument: Exploris 240 Orbitrap Thermo Scientific
Instrument type: LC-ESI-QFT
Ms type: MS2
Ion mode: POSITIVE
Ionization: ESI
Fragmentation mode: HCD
Collision energy: 120 % (nominal)
Resolution: 17500
Column name: XBridge C18 3.5um, 2.1x50mm, Waters
Retention time: 11.139 min
Base peak: 132.9582
Precursor m/z: 612.3068
Precursor type: [M+H]+
m/z	relative intensity	assigned
65.0385	218	C5H5+
67.0178	183	C4H3O+
70.0651	107	C4H8N+
71.0729	30	C4H9N+
84.0811	15	C5H10N+
91.0542	999	C7H7+
115.0542	374	C9H7+
117.0699	26	C9H9+
127.0544	12	C10H7+
128.0615	104	C10H8+
139.054	76	C11H7+
140.0501	18	C10H6N+
140.0623	16	C11H8+
141.07	110	C11H9+
151.0543	28	C12H7+
152.062	728	C12H8+
153.0698	52	C12H9+
164.0621	11	C13H8+
165.0698	708	C13H9+
168.0808	38	C12H10N+
169.0649	37	C12H9O+
180.0806	121	C13H10N+
181.0886	30	C13H11N+
208.076	32	C14H10NO+
209.0838	22	C14H11NO+
210.0916	17	C14H12NO+
