Mass spectrum: Prallethrin; LC-ESI-QFT; MS2; CE: 45%; R=15000; [M+H]+
Name: Prallethrin
Name: (2-methyl-4-oxo-3-prop-2-ynylcyclopent-2-en-1-yl) 2,2-dimethyl-3-(2-methylprop-1-enyl)cyclopropane-1-carboxylate
Formula: C19H24O3
Exact mass: 300.1725446
SMILES: CC1=C(C(=O)CC1OC(=O)C2C(C2(C)C)C=C(C)C)CC#C
InChI: InChI=1S/C19H24O3/c1-7-8-13-12(4)16(10-15(13)20)22-18(21)17-14(9-11(2)3)19(17,5)6/h1,9,14,16-17H,8,10H2,2-6H3
Instrument: Exploris 240 Thermo Scientific
Instrument type: LC-ESI-QFT
Ms type: MS2
Ion mode: POSITIVE
Ionization: ESI
Fragmentation mode: HCD
Collision energy: 45 % (nominal)
Resolution: 15000
Column name: XBridge C18 3.5um, 2.1x50mm, Waters
Retention time: 12.520 min
Base peak: 301.1796
Precursor m/z: 301.1798
Precursor type: [M+H]+
m/z	relative intensity	assigned
55.0178	96	C3H3O+
55.0542	15	C4H7+
57.0698	24	C4H9+
67.0543	21	C5H7+
69.0698	74	C5H9+
77.0386	34	C6H5+
79.0542	245	C6H7+
81.0698	162	C6H9+
83.0854	23	C6H11+
95.0492	31	C6H7O+
95.0856	29	C7H11+
103.0541	145	C8H7+
105.0698	999	C8H9+
107.0856	11	C8H11+
109.0648	27	C7H9O+
109.1009	16	C8H13+
115.0543	46	C9H7+
121.1012	30	C9H13+
123.1168	553	C9H15+
133.0647	267	C9H9O+
151.1115	47	C10H15O+
