Mass spectrum: Diazepam; LC-ESI-QFT; MS2; CE: 180%; R=15000; [M+H]+
Name: Diazepam
Name: 7-chloro-1-methyl-5-phenyl-3H-1,4-benzodiazepin-2-one
Formula: C16H13ClN2O
Exact mass: 284.0716407
SMILES: CN1C2=C(C=C(Cl)C=C2)C(=NCC1=O)C1=CC=CC=C1
InChI: InChI=1S/C16H13ClN2O/c1-19-14-8-7-12(17)9-13(14)16(18-10-15(19)20)11-5-3-2-4-6-11/h2-9H,10H2,1H3
Instrument: Q Exactive Plus
Instrument type: LC-ESI-QFT
Ms type: MS2
Ion mode: POSITIVE
Ionization: ESI
Fragmentation mode: HCD
Collision energy: 180 % (nominal)
Resolution: 15000
Column name: XBridge C18 3.5um, 2.1x50mm, Waters
Retention time: 8.885 min
Base peak: 285.079
Precursor m/z: 285.0789
Precursor type: [M+H]+
Precursor intensity: 504649844.09
m/z	relative intensity	assigned
50.0151	140	C4H2+
51.0229	215	C4H3+
53.0022	18	C3HO+
53.0386	50	C4H5+
58.0287	12	C2H4NO+
62.0151	110	C5H2+
63.0229	505	C5H3+
64.0308	36	C5H4+
65.0386	264	C5H5+
66.0463	21	C5H6+
72.984	171	C3H2Cl+
74.015	126	C6H2+
75.0229	259	C6H3+
76.0182	36	C5H2N+
76.0307	24	C6H4+
77.0386	66	C6H5+
78.0464	17	C6H6+
84.9839	20	C4H2Cl+
88.0183	14	C6H2N+
88.0308	25	C7H4+
89.0385	999	C7H5+
90.0464	119	C7H6+
91.0542	220	C7H7+
95.0492	156	C6H7O+
96.984	18	C5H2Cl+
98.9997	79	C5H4Cl+
100.0181	235	C7H2N+
104.0495	37	C7H6N+
105.0447	41	C6H5N2+
115.0542	123	C9H7+
116.0495	72	C8H6N+
117.0573	64	C8H7N+
118.0287	27	C7H4NO+
118.0655	30	C8H8N+
122.9997	22	C7H4Cl+
129.0101	13	C6H6ClO+
138.0105	18	C7H5ClN+
139.006	26	C6H4ClN2+
139.0542	98	C11H7+
140.0496	28	C10H6N+
142.0526	15	C9H6N2+
150.0465	137	C12H6+
151.0546	17	C12H7+
152.062	164	C12H8+
153.0576	24	C11H7N+
163.0541	191	C13H7+
164.0013	20	C10N2O+
164.0492	25	C12H6N+
164.062	55	C13H8+
165.0699	136	C13H9+
168.0567	28	C12H8O+
169.0647	166	C12H9O+
176.0617	35	C14H8+
177.0573	115	C13H7N+
178.0649	127	C13H8N+
179.0599	34	C12H7N2+
179.0738	20	C13H9N+
190.0654	39	C14H8N+
191.0727	15	C14H9N+
205.0763	28	C14H9N2+
