Mass spectrum: Flumioxazin; LC-ESI-QFT; MS2; CE: 30%; R=15000; [M+H]+
Name: Flumioxazin
Name: 2-(7-fluoro-3-oxo-4-prop-2-ynyl-1,4-benzoxazin-6-yl)-4,5,6,7-tetrahydroisoindole-1,3-dione
Formula: C19H15FN2O4
Exact mass: 354.1015852
SMILES: FC1=CC2=C(C=C1N1C(=O)C3=C(CCCC3)C1=O)N(CC#C)C(=O)CO2
InChI: InChI=1S/C19H15FN2O4/c1-2-7-21-15-9-14(13(20)8-16(15)26-10-17(21)23)22-18(24)11-5-3-4-6-12(11)19(22)25/h1,8-9H,3-7,10H2
Instrument: Q Exactive Plus
Instrument type: LC-ESI-QFT
Ms type: MS2
Ion mode: POSITIVE
Ionization: ESI
Fragmentation mode: HCD
Collision energy: 30 % (nominal)
Resolution: 15000
Column name: XBridge C18 3.5um, 2.1x50mm, Waters
Retention time: 8.237 min
Base peak: 355.1091
Precursor m/z: 355.1089
Precursor type: [M+H]+
Precursor intensity: 108809856.34
m/z	relative intensity	assigned
148.0557	14	C9H7FN+
176.0506	79	C10H7FNO+
190.0536	22	C10H7FN2O+
204.0456	97	C11H7FNO2+
253.0777	12	C15H10FN2O+
260.0715	32	C14H11FNO3+
281.1086	22	C17H14FN2O+
285.1029	13	C16H14FN2O2+
286.0876	19	C19H12NO2+
287.0822	28	C15H12FN2O3+
297.1035	19	C17H14FN2O2+
299.0832	95	C16H12FN2O3+
301.0984	19	C16H14FN2O3+
307.1078	63	C18H15N2O3+
313.0983	79	C17H14FN2O3+
327.0778	35	C17H12FN2O4+
327.1137	332	C18H16FN2O3+
355.109	999	C19H16FN2O4+
