Mass spectrum: 2-Hydroxynevirapine; LC-ESI-QFT; MS2; CE: 180%; R=17500; [M+H]+
Name: 2-Hydroxynevirapine
Name: 2-Hydroxy Nevirapine
Name: 2-cyclopropyl-7-methyl-2,4,9,15-tetrazatricyclo[9.4.0.03,8]pentadeca-1(11),3(8),6,12,14-pentaene-5,10-dione
Formula: C15H14N4O2
Exact mass: 282.1116757
SMILES: CC1=CC(=O)NC2=C1NC(=O)C3=C(N2C4CC4)N=CC=C3
InChI: InChI=1S/C15H14N4O2/c1-8-7-11(20)17-14-12(8)18-15(21)10-3-2-6-16-13(10)19(14)9-4-5-9/h2-3,6-7,9H,4-5H2,1H3,(H,17,20)(H,18,21)
Instrument: Exploris 240 Orbitrap Thermo Scientific
Instrument type: LC-ESI-QFT
Ms type: MS2
Ion mode: POSITIVE
Ionization: ESI
Fragmentation mode: HCD
Collision energy: 180 % (nominal)
Resolution: 17500
Column name: XBridge C18 3.5um, 2.1x50mm, Waters
Retention time: 3.847 min
Base peak: 283.1187
Precursor m/z: 283.119
Precursor type: [M+H]+
m/z	relative intensity	assigned
50.0151	292	C4H2+
51.0229	881	C4H3+
52.0181	129	C3H2N+
52.0306	186	C4H4+
53.0388	66	C4H5+
54.0339	67	C3H4N+
63.0229	196	C5H3+
64.0183	99	C4H2N+
65.0261	60	C4H3N+
65.0385	114	C5H5+
66.0338	308	C4H4N+
67.0416	153	C4H5N+
68.0495	433	C4H6N+
76.0181	246	C5H2N+
77.0387	117	C6H5+
78.0338	999	C5H4N+
79.0415	262	C5H5N+
80.0495	48	C5H6N+
81.0451	33	C4H5N2+
89.0384	241	C7H5+
90.0339	114	C6H4N+
90.0465	64	C7H6+
91.0417	57	C6H5N+
92.0369	245	C5H4N2+
92.0492	43	C6H6N+
93.0448	314	C5H5N2+
95.0605	83	C5H7N2+
96.0444	411	C5H6NO+
103.0293	117	C6H3N2+
104.0498	106	C7H6N+
105.045	47	C6H5N2+
116.0498	41	C8H6N+
117.0573	45	C8H7N+
121.0398	83	C6H5N2O+
131.0604	103	C8H7N2+
142.0528	36	C9H6N2+
144.0562	38	C8H6N3+
183.0672	56	C10H7N4+
