Mass spectrum: 4-(Methylthio)benzaldehyde; LC-ESI-QFT; MS2; CE: 120%; R=15000; [M+H]+
Name: 4-(Methylthio)benzaldehyde
Name: 4-methylsulfanylbenzaldehyde
Formula: C8H8OS
Exact mass: 152.0295859
SMILES: CSC1=CC=C(C=O)C=C1
InChI: InChI=1S/C8H8OS/c1-10-8-4-2-7(6-9)3-5-8/h2-6H,1H3
Instrument: Exploris 240 Thermo Scientific
Instrument type: LC-ESI-QFT
Ms type: MS2
Ion mode: POSITIVE
Ionization: ESI
Fragmentation mode: HCD
Collision energy: 120 % (nominal)
Resolution: 15000
Column name: XBridge C18 3.5um, 2.1x50mm, Waters
Retention time: 6.327 min
Base peak: 132.9581
Precursor m/z: 153.0369
Precursor type: [M+H]+
m/z	relative intensity	assigned
44.9793	24	CHS+
51.0229	154	C4H3+
53.0386	52	C4H5+
65.0386	636	C5H5+
66.0464	444	C5H6+
68.9793	73	C3HS+
77.0386	136	C6H5+
78.0464	441	C6H6+
84.0028	56	C4H4S+
91.0542	57	C7H7+
95.0491	313	C6H7O+
109.0106	999	C6H5S+
110.0185	600	C6H6S+
