Mass spectrum: (E)-1-(2-Chloro-1,3-thiazol-5-yl methyl)-3-methyl-2-nitroguanidine; LC-ESI-QFT; MS2; CE: 60%; R=15000; [M+H]+
Name: (E)-1-(2-Chloro-1,3-thiazol-5-yl methyl)-3-methyl-2-nitroguanidine
Name: 1-[(2-chloro-1,3-thiazol-5-yl)methyl]-2-methyl-3-nitroguanidine
Formula: C6H8ClN5O2S
Exact mass: 249.0087232
SMILES: CN\C(NCC1=CN=C(Cl)S1)=N/[N+]([O-])=O
InChI: InChI=1S/C6H8ClN5O2S/c1-8-6(11-12(13)14)10-3-4-2-9-5(7)15-4/h2H,3H2,1H3,(H2,8,10,11)
Instrument: Q Exactive Plus
Instrument type: LC-ESI-QFT
Ms type: MS2
Ion mode: POSITIVE
Ionization: ESI
Fragmentation mode: HCD
Collision energy: 60 % (nominal)
Resolution: 15000
Column name: XBridge C18 3.5um, 2.1x50mm, Waters
Retention time: 4.165 min
Base peak: 250.016
Precursor m/z: 250.016
Precursor type: [M+H]+
Precursor intensity: 221153798.4
m/z	relative intensity	assigned
54.0338	25	C3H4N+
57.0447	41	C2H5N2+
69.0447	13	C3H5N2+
70.995	114	C3H3S+
86.0059	63	C3H4NS+
96.0555	12	C4H6N3+
110.0713	422	C5H8N3+
111.0791	232	C5H9N3+
113.0167	612	C4H5N2S+
119.9671	20	C3H3ClNS+
125.0823	10	C5H9N4+
127.0197	12	C4H5N3S+
131.9669	999	C4H3ClNS+
132.9746	17	C4H4ClNS+
142.0433	46	C5H8N3S+
146.9777	53	C4H4ClN2S+
147.9856	29	C4H5ClN2S+
153.0228	24	C5H5N4S+
167.0384	23	C6H7N4S+
168.0463	26	C6H8N4S+
169.0541	293	C6H9N4S+
174.9728	30	C5H4ClN2OS+
