Mass spectrum: Phenylephrine 3-O-sulfate; LC-ESI-QFT; MS2; CE: 15%; R=17500; [M+H]+
Name: Phenylephrine 3-O-sulfate
Name: [3-[1-hydroxy-2-(methylamino)ethyl]phenyl] hydrogen sulfate
Formula: C9H13NO5S
Exact mass: 247.0514435
SMILES: CNCC(C1=CC(=CC=C1)OS(=O)(=O)O)O
InChI: InChI=1S/C9H13NO5S/c1-10-6-9(11)7-3-2-4-8(5-7)15-16(12,13)14/h2-5,9-11H,6H2,1H3,(H,12,13,14)
Instrument: Exploris 240 Orbitrap Thermo Scientific
Instrument type: LC-ESI-QFT
Ms type: MS2
Ion mode: POSITIVE
Ionization: ESI
Fragmentation mode: HCD
Collision energy: 15 % (nominal)
Resolution: 17500
Column name: XBridge C18 3.5um, 2.1x50mm, Waters
Retention time: 1.038 min
Base peak: 144.9877
Precursor m/z: 248.0587
Precursor type: [M+H]+
m/z	relative intensity	assigned
150.0912	140	C9H12NO+
168.1019	33	C9H14NO2+
230.0482	285	C9H12NO4S+
248.0587	999	C9H14NO5S+
