Mass spectrum: Prallethrin; LC-ESI-QFT; MS2; CE: 30%; R=15000; [M+H]+
Name: Prallethrin
Name: (2-methyl-4-oxo-3-prop-2-ynylcyclopent-2-en-1-yl) 2,2-dimethyl-3-(2-methylprop-1-enyl)cyclopropane-1-carboxylate
Formula: C19H24O3
Exact mass: 300.1725446
SMILES: CC1=C(C(=O)CC1OC(=O)C2C(C2(C)C)C=C(C)C)CC#C
InChI: InChI=1S/C19H24O3/c1-7-8-13-12(4)16(10-15(13)20)22-18(21)17-14(9-11(2)3)19(17,5)6/h1,9,14,16-17H,8,10H2,2-6H3
Instrument: Exploris 240 Thermo Scientific
Instrument type: LC-ESI-QFT
Ms type: MS2
Ion mode: POSITIVE
Ionization: ESI
Fragmentation mode: HCD
Collision energy: 30 % (nominal)
Resolution: 15000
Column name: XBridge C18 3.5um, 2.1x50mm, Waters
Retention time: 12.520 min
Base peak: 301.1796
Precursor m/z: 301.1798
Precursor type: [M+H]+
m/z	relative intensity	assigned
55.0178	71	C3H3O+
57.0699	17	C4H9+
69.0698	87	C5H9+
79.0542	59	C6H7+
81.0697	44	C6H9+
83.0854	29	C6H11+
103.054	31	C8H7+
105.0698	966	C8H9+
109.0649	20	C7H9O+
109.1013	18	C8H13+
113.0597	43	C6H9O2+
115.0543	34	C9H7+
121.1012	60	C9H13+
123.1167	896	C9H15+
133.0646	999	C9H9O+
149.0959	23	C10H13O+
151.1115	245	C10H15O+
169.122	125	C10H17O2+
