Mass spectrum: Methylecgonine; LC-ESI-QFT; MS2; CE: 75%; R=17500; [M+H]+
Name: Methylecgonine
Name: methyl 3-hydroxy-8-methyl-8-azabicyclo[3.2.1]octane-2-carboxylate
Formula: C10H17NO3
Exact mass: 199.1208434
SMILES: CN1C2CCC1C(C(C2)O)C(=O)OC
InChI: InChI=1S/C10H17NO3/c1-11-6-3-4-7(11)9(8(12)5-6)10(13)14-2/h6-9,12H,3-5H2,1-2H3
Instrument: Exploris 240 Orbitrap Thermo Scientific
Instrument type: LC-ESI-QFT
Ms type: MS2
Ion mode: POSITIVE
Ionization: ESI
Fragmentation mode: HCD
Collision energy: 75 % (nominal)
Resolution: 17500
Column name: XBridge C18 3.5um, 2.1x50mm, Waters
Retention time: 0.884 min
Base peak: 200.128
Precursor m/z: 200.1281
Precursor type: [M+H]+
m/z	relative intensity	assigned
59.0126	7	C2H3O2+
65.0385	35	C5H5+
67.0542	22	C5H7+
68.0493	40	C4H6N+
69.0333	11	C4H5O+
70.0649	18	C4H8N+
79.0541	31	C6H7+
81.07	16	C6H9+
82.0651	999	C5H8N+
83.0729	132	C5H9N+
84.0806	34	C5H10N+
91.0541	108	C7H7+
93.0333	103	C6H5O+
93.0699	45	C7H9+
94.065	51	C6H8N+
96.0806	85	C6H10N+
97.0648	25	C6H9O+
100.0756	85	C5H10NO+
107.0727	10	C7H9N+
108.0809	78	C7H10N+
118.0412	18	C8H6O+
119.0491	120	C8H7O+
122.0599	7	C7H8NO+
122.0965	79	C8H12N+
124.0755	12	C7H10NO+
124.1122	22	C8H14N+
125.0599	17	C7H9O2+
132.0808	8	C9H10N+
150.0917	79	C9H12NO+
154.086	57	C8H12NO2+
156.1022	12	C8H14NO2+
168.1017	14	C9H14NO2+
182.1175	549	C10H16NO2+
200.1278	69	C10H18NO3+
