Mass spectrum: Chlorprothixene; LC-ESI-QFT; MS2; CE: 180%; R=17500; [M+H]+
Name: Chlorprothixene
Name: 3-(2-chlorothioxanthen-9-ylidene)-N,N-dimethylpropan-1-amine
Formula: C18H18ClNS
Exact mass: 315.084848256
SMILES: CN(C)CCC=C1C2=CC=CC=C2SC3=C1C=C(C=C3)Cl
InChI: InChI=1S/C18H18ClNS/c1-20(2)11-5-7-14-15-6-3-4-8-17(15)21-18-10-9-13(19)12-16(14)18/h3-4,6-10,12H,5,11H2,1-2H3
Instrument: Exploris 240 Orbitrap Thermo Scientific
Instrument type: LC-ESI-QFT
Ms type: MS2
Ion mode: POSITIVE
Ionization: ESI
Fragmentation mode: HCD
Collision energy: 180 % (nominal)
Resolution: 17500
Column name: XBridge C18 3.5um, 2.1x50mm, Waters
Retention time: 10.058 min
Base peak: 316.0919
Precursor m/z: 316.0921
Precursor type: [M+H]+
m/z	relative intensity	assigned
58.0652	338	C3H8N+
68.0496	114	C4H6N+
68.9793	170	C3HS+
70.0652	149	C4H8N+
77.0386	81	C6H5+
84.0809	89	C5H10N+
89.0385	106	C7H5+
102.0465	170	C8H6+
115.0547	168	C9H7+
139.0543	131	C11H7+
150.0464	498	C12H6+
151.0542	444	C12H7+
152.0621	884	C12H8+
163.0543	727	C13H7+
164.0623	223	C13H8+
165.0699	368	C13H9+
169.0106	103	C11H5S+
169.065	283	C9H12ClN+
176.0621	999	C14H8+
187.054	245	C15H7+
188.0626	191	C15H8+
189.0701	705	C15H9+
195.0261	301	C13H7S+
200.0624	332	C16H8+
201.0699	261	C16H9+
202.0776	615	C16H10+
208.0344	124	C14H8S+
219.0264	379	C15H7S+
220.034	71	C15H8S+
221.0421	98	C15H9S+
