Mass spectrum: Benzamide; LC-ESI-QFT; MS2; CE: 40%; R=15000; [M+H]+
Name: Benzamide
Formula: C7H7NO
Exact mass: 121.0527638
SMILES: C1=CC=C(C=C1)C(=O)N
InChI: InChI=1S/C7H7NO/c8-7(9)6-4-2-1-3-5-6/h1-5H,(H2,8,9)
Instrument: Exploris 240 Thermo Scientific
Instrument type: LC-ESI-QFT
Ms type: MS2
Ion mode: POSITIVE
Ionization: ESI
Fragmentation mode: HCD
Collision energy: 40 % (nominal)
Resolution: 15000
Column name: XBridge C18 3.5um, 2.1x50mm, Waters
Retention time: 2.801 min
Base peak: 122.0598
Precursor m/z: 122.06
Precursor type: [M+H]+
m/z	relative intensity	assigned
44.013	543	CH2NO+
53.0385	21	C4H5+
59.0489	20	C3H7O+
77.0385	69	C6H5+
79.0542	654	C6H7+
95.0491	204	C6H7O+
104.0493	14	C7H6N+
105.0334	999	C7H5O+
122.0599	155	C7H8NO+
