Mass spectrum: Methyl anthranilate; LC-ESI-QFT; MS2; CE: 75%; R=17500; [M+H]+
Name: Methyl anthranilate
Name: methyl 2-aminobenzoate
Formula: C8H9NO2
Exact mass: 151.0633285
SMILES: COC(=O)C1=CC=CC=C1N
InChI: InChI=1S/C8H9NO2/c1-11-8(10)6-4-2-3-5-7(6)9/h2-5H,9H2,1H3
Instrument: Exploris 240 Orbitrap Thermo Scientific
Instrument type: LC-ESI-QFT
Ms type: MS2
Ion mode: POSITIVE
Ionization: ESI
Fragmentation mode: HCD
Collision energy: 75 % (nominal)
Resolution: 17500
Column name: XBridge C18 3.5um, 2.1x50mm, Waters
Retention time: 5.714 min
Base peak: 120.0442
Precursor m/z: 152.0706
Precursor type: [M+H]+
m/z	relative intensity	assigned
65.0385	69	C5H5+
92.0494	560	C6H6N+
110.06	3	C6H8NO+
120.0442	999	C7H6NO+
