Mass spectrum: Myclobutanil; LC-ESI-QFT; MS2; CE: 45%; R=15000; [M+H]+
Name: Myclobutanil
Name: 2-(4-chlorophenyl)-2-(1,2,4-triazol-1-ylmethyl)hexanenitrile
Formula: C15H17ClN4
Exact mass: 288.1141742
SMILES: CCCCC(CN1C=NC=N1)(C#N)C1=CC=C(Cl)C=C1
InChI: InChI=1S/C15H17ClN4/c1-2-3-8-15(9-17,10-20-12-18-11-19-20)13-4-6-14(16)7-5-13/h4-7,11-12H,2-3,8,10H2,1H3
Instrument: Q Exactive Plus
Instrument type: LC-ESI-QFT
Ms type: MS2
Ion mode: POSITIVE
Ionization: ESI
Fragmentation mode: HCD
Collision energy: 45 % (nominal)
Resolution: 15000
Column name: XBridge C18 3.5um, 2.1x50mm, Waters
Retention time: 9.938 min
Base peak: 289.1216
Precursor m/z: 289.1215
Precursor type: [M+H]+
Precursor intensity: 913467055.69
m/z	relative intensity	assigned
70.04	999	C2H4N3+
125.0153	263	C7H6Cl+
151.0309	64	C9H8Cl+
164.0262	19	C9H7ClN+
178.0419	16	C10H9ClN+
