Mass spectrum: 5-Hydroxysulfapyridine; LC-ESI-QFT; MS2; CE: 15%; R=17500; [M+H]+
Name: 5-Hydroxysulfapyridine
Name: Benzenesulfonamide, 4-amino-N-(5-hydroxy-2-pyridinyl)-
Name: 4-amino-N-(5-hydroxypyridin-2-yl)benzenesulfonamide
Formula: C11H11N3O3S
Exact mass: 265.0521122
SMILES: C1=CC(=CC=C1N)S(=O)(=O)NC2=NC=C(C=C2)O
InChI: InChI=1S/C11H11N3O3S/c12-8-1-4-10(5-2-8)18(16,17)14-11-6-3-9(15)7-13-11/h1-7,15H,12H2,(H,13,14)
Instrument: Exploris 240 Orbitrap Thermo Scientific
Instrument type: LC-ESI-QFT
Ms type: MS2
Ion mode: POSITIVE
Ionization: ESI
Fragmentation mode: HCD
Collision energy: 15 % (nominal)
Resolution: 17500
Column name: XBridge C18 3.5um, 2.1x50mm, Waters
Retention time: 2.562 min
Base peak: 266.0591
Precursor m/z: 266.0594
Precursor type: [M+H]+
m/z	relative intensity	assigned
156.0114	35	C6H6NO2S+
200.0824	12	C11H10N3O+
266.0594	999	C11H12N3O3S+
