Mass spectrum: Drotaverine; LC-ESI-QFT; MS2; CE: 45%; R=17500; [M+H]+
Name: Drotaverine
Name: 1-(3,4-Diethoxybenzylidene)-6,7-diethoxy-1,2,3,4-tetrahydroisoquinoline
Name: 1-[(3,4-diethoxyphenyl)methylidene]-6,7-diethoxy-3,4-dihydro-2H-isoquinoline
Formula: C24H31NO4
Exact mass: 397.225308472
SMILES: CCOC1=C(C=C(C=C1)C=C2C3=CC(=C(C=C3CCN2)OCC)OCC)OCC
InChI: InChI=1S/C24H31NO4/c1-5-26-21-10-9-17(14-22(21)27-6-2)13-20-19-16-24(29-8-4)23(28-7-3)15-18(19)11-12-25-20/h9-10,13-16,25H,5-8,11-12H2,1-4H3
Instrument: Exploris 240 Orbitrap Thermo Scientific
Instrument type: LC-ESI-QFT
Ms type: MS2
Ion mode: POSITIVE
Ionization: ESI
Fragmentation mode: HCD
Collision energy: 45 % (nominal)
Resolution: 17500
Column name: XBridge C18 3.5um, 2.1x50mm, Waters
Retention time: 7.550 min
Base peak: 398.2321
Precursor m/z: 398.2326
Precursor type: [M+H]+
m/z	relative intensity	assigned
254.1179	7	C16H16NO2+
269.1038	13	C16H15NO3+
282.1119	32	C17H16NO3+
296.1279	12	C18H18NO3+
297.136	4	C18H19NO3+
298.1069	23	C17H16NO4+
310.1449	10	C19H20NO3+
312.1228	10	C18H18NO4+
313.1303	15	C18H19NO4+
314.1751	24	C19H24NO3+
324.1596	27	C20H22NO3+
326.1375	184	C19H20NO4+
340.154	57	C20H22NO4+
341.1619	81	C20H23NO4+
352.1922	30	C22H26NO3+
354.1701	577	C21H24NO4+
368.186	76	C22H26NO4+
369.1946	12	C22H27NO4+
370.2013	645	C22H28NO4+
398.2327	999	C24H32NO4+
