Mass spectrum: Meropenem; LC-ESI-QFT; MS2; CE: 150%; R=15000; [M+H]+
Name: Meropenem
Name: 3-[5-(dimethylcarbamoyl)pyrrolidin-3-yl]sulfanyl-6-(1-hydroxyethyl)-4-methyl-7-oxo-1-azabicyclo[3.2.0]hept-2-ene-2-carboxylic acid
Formula: C17H25N3O5S
Exact mass: 383.1514919
SMILES: CC1C2C(C(=O)N2C(=C1SC3CC(NC3)C(=O)N(C)C)C(=O)O)C(C)O
InChI: InChI=1S/C17H25N3O5S/c1-7-12-11(8(2)21)16(23)20(12)13(17(24)25)14(7)26-9-5-10(18-6-9)15(22)19(3)4/h7-12,18,21H,5-6H2,1-4H3,(H,24,25)
Instrument: Exploris 240 Thermo Scientific
Instrument type: LC-ESI-QFT
Ms type: MS2
Ion mode: POSITIVE
Ionization: ESI
Fragmentation mode: HCD
Collision energy: 150 % (nominal)
Resolution: 15000
Column name: XBridge C18 3.5um, 2.1x50mm, Waters
Retention time: 2.456 min
Base peak: 384.1589
Precursor m/z: 384.1588
Precursor type: [M+H]+
m/z	relative intensity	assigned
53.0385	27	C4H5+
67.0417	67	C4H5N+
68.0495	999	C4H6N+
73.0759	16	C3H9N2+
80.0495	179	C5H6N+
81.0573	64	C5H7N+
85.0105	38	C4H5S+
91.0542	11	C7H7+
