Mass spectrum: 12-Hydroxynevirapine; LC-ESI-QFT; MS2; CE: 120%; R=17500; [M-H]-
Name: 12-Hydroxynevirapine
Name: 2-cyclopropyl-7-(hydroxymethyl)-2,4,9,15-tetrazatricyclo[9.4.0.03,8]pentadeca-1(11),3,5,7,12,14-hexaen-10-one
Formula: C15H14N4O2
Exact mass: 282.1116757
SMILES: C1CC1N2C3=C(C=CC=N3)C(=O)NC4=C(C=CN=C42)CO
InChI: InChI=1S/C15H14N4O2/c20-8-9-5-7-17-14-12(9)18-15(21)11-2-1-6-16-13(11)19(14)10-3-4-10/h1-2,5-7,10,20H,3-4,8H2,(H,18,21)
Instrument: Exploris 240 Orbitrap Thermo Scientific
Instrument type: LC-ESI-QFT
Ms type: MS2
Ion mode: NEGATIVE
Ionization: ESI
Fragmentation mode: HCD
Collision energy: 120 % (nominal)
Resolution: 17500
Column name: XBridge C18 3.5um, 2.1x50mm, Waters
Retention time: 3.996 min
Base peak: 281.1042
Precursor m/z: 281.1044
Precursor type: [M-H]-
m/z	relative intensity	assigned
50.0036	74	C3N-
64.0194	56	C4H2N-
65.0147	32	C3HN2-
74.0036	31	C5N-
89.0146	75	C5HN2-
91.0302	136	C5H3N2-
93.0457	102	C5H5N2-
118.0409	431	C6H4N3-
131.0484	53	C7H5N3-
133.0281	205	C6H3N3O-
141.0462	50	C9H5N2-
142.0408	212	C8H4N3-
143.0365	58	C7H3N4-
146.036	30	C7H4N3O-
166.0407	122	C10H4N3-
168.0567	999	C10H6N3-
209.0466	69	C11H5N4O-
