Mass spectrum: Nitrofurantoin; LC-ESI-QFT; MS2; CE: 75%; R=15000; [M+H]+
Name: Nitrofurantoin
Name: 1-[(5-Nitro-2-furanyl)methylideneamino]imidazolidine-2,4-dione
Name: 1-[(5-nitrofuran-2-yl)methylideneamino]imidazolidine-2,4-dione
Formula: C8H6N4O5
Exact mass: 238.0338193
SMILES: [O-][N+](=O)C1=CC=C(O1)C=NN1CC(=O)NC1=O
InChI: InChI=1S/C8H6N4O5/c13-6-4-11(8(14)10-6)9-3-5-1-2-7(17-5)12(15)16/h1-3H,4H2,(H,10,13,14)
Instrument: Q Exactive Plus
Instrument type: LC-ESI-QFT
Ms type: MS2
Ion mode: POSITIVE
Ionization: ESI
Fragmentation mode: HCD
Collision energy: 75 % (nominal)
Resolution: 15000
Column name: XBridge C18 3.5um, 2.1x50mm, Waters
Retention time: 3.220 min
Base peak: 164.9847
Precursor m/z: 239.0411
Precursor type: [M+H]+
Precursor intensity: 8988663.19
m/z	relative intensity	assigned
50.0152	21	C4H2+
51.023	42	C4H3+
52.0182	33	C3H2N+
53.0023	69	C3HO+
54.0101	15	C3H2O+
54.0339	59	C3H4N+
55.0179	47	C3H3O+
55.0292	25	C2H3N2+
56.0495	20	C3H6N+
57.021	17	C2H3NO+
64.0182	116	C4H2N+
65.0261	59	C4H3N+
65.0386	24	C5H5+
66.0213	47	C3H2N2+
66.0339	70	C4H4N+
67.0417	999	C4H5N+
68.037	40	C3H4N2+
69.0084	32	C2HN2O+
69.9924	17	C2NO2+
79.0179	126	C5H3O+
80.0132	102	C4H2NO+
81.045	22	C4H5N2+
82.005	54	C4H2O2+
82.0288	77	C4H4NO+
83.0366	217	C4H5NO+
93.0084	20	C4HN2O+
93.021	49	C5H3NO+
93.0448	247	C5H5N2+
94.0163	38	C4H2N2O+
94.0288	42	C5H4NO+
94.0527	72	C5H6N2+
95.0366	50	C5H5NO+
96.0081	30	C4H2NO2+
96.0318	50	C4H4N2O+
98.0349	28	C3H4N3O+
100.0268	86	C3H4N2O2+
110.0237	25	C5H4NO2+
111.0316	73	C5H5NO2+
121.0398	87	C6H5N2O+
122.0112	532	C5H2N2O2+
137.0348	32	C6H5N2O2+
139.0139	29	C5H3N2O3+
149.0347	32	C7H5N2O2+
168.0408	13	C6H6N3O3+
