Mass spectrum: Ezetimibe; LC-ESI-QFT; MS2; CE: 60%; R=15000; [M-H]-
Name: Ezetimibe
Name: 1-(4-Fluorophenyl)-3-(3-(4-fluorophenyl)-3-hydroxypropyl)-4-(4-hydroxyphenyl)azetidin-2-one
Name: 1-(4-fluorophenyl)-3-[3-(4-fluorophenyl)-3-hydroxypropyl]-4-(4-hydroxyphenyl)azetidin-2-one
Formula: C24H21F2NO3
Exact mass: 409.14895
SMILES: C1=CC(=CC=C1C2C(C(=O)N2C3=CC=C(C=C3)F)CCC(C4=CC=C(C=C4)F)O)O
InChI: InChI=1S/C24H21F2NO3/c25-17-5-1-15(2-6-17)22(29)14-13-21-23(16-3-11-20(28)12-4-16)27(24(21)30)19-9-7-18(26)8-10-19/h1-12,21-23,28-29H,13-14H2
Instrument: Exploris 240 Thermo Scientific
Instrument type: LC-ESI-QFT
Ms type: MS2
Ion mode: NEGATIVE
Ionization: ESI
Fragmentation mode: HCD
Collision energy: 60 % (nominal)
Resolution: 15000
Column name: XBridge C18 3.5um, 2.1x50mm, Waters
Retention time: 9.765 min
Base peak: 408.1416
Precursor m/z: 408.1417
Precursor type: [M-H]-
m/z	relative intensity	assigned
93.0345	196	C6H5O-
95.0302	312	C6H4F-
106.0424	208	C7H6O-
110.0412	139	C6H5FN-
119.0502	883	C8H7O-
131.0501	142	C9H7O-
132.058	999	C9H8O-
137.0408	207	C8H6FO-
145.066	96	C10H9O-
147.0819	110	C10H11O-
149.0413	48	C9H6FO-
151.0566	72	C9H8FO-
163.0564	103	C10H8FO-
175.0765	348	C11H11O2-
271.1142	463	C17H16FO2-
