Mass spectrum: Bromoxynil; LC-ESI-QFT; MS2; CE: 120%; R=15000; [M-H]-
Name: Bromoxynil
Name: 3,5-dibromo-4-hydroxybenzonitrile
Formula: C7H3Br2NO
Exact mass: 274.8581379
SMILES: OC1=C(Br)C=C(C=C1Br)C#N
InChI: InChI=1S/C7H3Br2NO/c8-5-1-4(3-10)2-6(9)7(5)11/h1-2,11H
Instrument: Q Exactive Plus
Instrument type: LC-ESI-QFT
Ms type: MS2
Ion mode: NEGATIVE
Ionization: ESI
Fragmentation mode: HCD
Collision energy: 120 % (nominal)
Resolution: 15000
Column name: XBridge C18 3.5um, 2.1x50mm, Waters
Retention time: 7.311 min
Base peak: 275.8488
Precursor m/z: 273.8509
Precursor type: [M-H]-
Precursor intensity: 113587736.16
m/z	relative intensity	assigned
78.9189	999	Br-
