Mass spectrum: 2-ClPFPECA-0-3; LC-ESI-QFT; MS2; CE: 60%; R=17500; [M-H]-
Name: 2-ClPFPECA-0-3
Name: 2-Chloro-perfluoroethercarboxylate congener 0,3
Name: 2-[1-[1-[1-(2-chloro-1,1,2,3,3,3-hexafluoropropoxy)-1,1,2,3,3,3-hexafluoropropan-2-yl]oxy-1,1,2,3,3,3-hexafluoropropan-2-yl]oxy-1,1,2,3,3,3-hexafluoropropan-2-yl]oxy-2,2-difluoroacetic acid
Formula: C14HClF26O6
Exact mass: 793.904649152
SMILES: C(=O)(C(OC(C(OC(C(OC(C(OC(C(C(F)(F)F)(F)Cl)(F)F)(F)F)(C(F)(F)F)F)(F)F)(C(F)(F)F)F)(F)F)(C(F)(F)F)F)(F)F)O
InChI: InChI=1S/C14HClF26O6/c15-3(18,7(22,23)24)11(34,35)47-14(40,41)6(21,10(31,32)33)46-13(38,39)5(20,9(28,29)30)45-12(36,37)4(19,8(25,26)27)44-2(16,17)1(42)43/h(H,42,43)
Instrument: Exploris 240 Orbitrap Thermo Scientific
Instrument type: LC-ESI-QFT
Ms type: MS2
Ion mode: NEGATIVE
Ionization: ESI
Fragmentation mode: HCD
Collision energy: 60 % (nominal)
Resolution: 17500
Column name: XBridge C18 3.5um, 2.1x50mm, Waters
Retention time: 14.493 min
Base peak: 698.9106
Precursor m/z: 792.8974
Precursor type: [M-H]-
m/z	relative intensity	assigned
134.9631	229	C2ClF4-
184.9839	157	C3F7O-
200.9546	999	C3ClF6O-
