Mass spectrum: 8-2-PAP; LC-ESI-QFT; MS2; CE: 75%; R=17500; [M-H]-
Name: 8-2-PAP
Name: Perfluorodecyl phosphate
Name: 3,3,4,4,5,5,6,6,7,7,8,8,9,9,10,10,10-heptadecafluorodecyl dihydrogen phosphate
Formula: C10H6F17O4P
Exact mass: 543.973225042
SMILES: C(COP(=O)(O)O)C(C(C(C(C(C(C(C(F)(F)F)(F)F)(F)F)(F)F)(F)F)(F)F)(F)F)(F)F
InChI: InChI=1S/C10H6F17O4P/c11-3(12,1-2-31-32(28,29)30)4(13,14)5(15,16)6(17,18)7(19,20)8(21,22)9(23,24)10(25,26)27/h1-2H2,(H2,28,29,30)
Instrument: Exploris 240 Orbitrap Thermo Scientific
Instrument type: LC-ESI-QFT
Ms type: MS2
Ion mode: NEGATIVE
Ionization: ESI
Fragmentation mode: HCD
Collision energy: 75 % (nominal)
Resolution: 17500
Column name: XBridge C18 3.5um, 2.1x50mm, Waters
Retention time: 11.931 min
Base peak: 542.9659
Precursor m/z: 542.9659
Precursor type: [M-H]-
m/z	relative intensity	assigned
78.959	999	O3P-
96.9695	267	H2O4P-
