Mass spectrum: 3-(3,5-Dichlorophenyl)-N-(1-methylethyl)-2,4-dioxo-1-imidazolidinecarboxamide; LC-ESI-QFT; MS2; CE: 45%; R=15000; [M+H]+
Name: 3-(3,5-Dichlorophenyl)-N-(1-methylethyl)-2,4-dioxo-1-imidazolidinecarboxamide
Name: Iprodione
Name: 3-(3,5-dichlorophenyl)-2,4-dioxo-N-propan-2-ylimidazolidine-1-carboxamide
Formula: C13H13Cl2N3O3
Exact mass: 329.0333966
SMILES: CC(C)NC(=O)N1CC(=O)N(C1=O)C1=CC(Cl)=CC(Cl)=C1
InChI: InChI=1S/C13H13Cl2N3O3/c1-7(2)16-12(20)17-6-11(19)18(13(17)21)10-4-8(14)3-9(15)5-10/h3-5,7H,6H2,1-2H3,(H,16,20)
Instrument: Q Exactive Plus
Instrument type: LC-ESI-QFT
Ms type: MS2
Ion mode: POSITIVE
Ionization: ESI
Fragmentation mode: HCD
Collision energy: 45 % (nominal)
Resolution: 15000
Column name: XBridge C18 3.5um, 2.1x50mm, Waters
Retention time: 10.931 min
Base peak: 164.9846
Precursor m/z: 330.0407
Precursor type: [M+H]+
Precursor intensity: 12843620.78
m/z	relative intensity	assigned
56.0131	615	C2H2NO+
74.0237	43	C2H4NO2+
161.9871	369	C6H6Cl2N+
166.029	76	C8H7ClN2+
167.0133	34	C8H6ClNO+
171.9714	161	C7H4Cl2N+
173.9871	279	C7H6Cl2N+
187.9664	241	C7H4Cl2NO+
199.9666	16	C8H4Cl2NO+
201.9821	45	C8H6Cl2NO+
216.9929	238	C8H7Cl2N2O+
244.9879	999	C9H7Cl2N2O2+
