Mass spectrum: Nintedanib; LC-ESI-QFT; MS2; CE: 45%; R=15000; [M-H]-
Name: Nintedanib
Name: methyl 2-hydroxy-3-[N-[4-[methyl-[2-(4-methylpiperazin-1-yl)acetyl]amino]phenyl]-C-phenylcarbonimidoyl]-1H-indole-6-carboxylate
Name: methyl 3-[N-[4-[methyl-[2-(4-methylpiperazin-1-yl)ethanoyl]amino]phenyl]-C-phenyl-carbonimidoyl]-2-oxidanyl-1H-indole-6-carboxylate
Formula: C31H33N5O4
Exact mass: 539.2532545
SMILES: CN1CCN(CC1)CC(=O)N(C)C2=CC=C(C=C2)N=C(C3=CC=CC=C3)C4=C(NC5=C4C=CC(=C5)C(=O)OC)O
InChI: InChI=1S/C31H33N5O4/c1-34-15-17-36(18-16-34)20-27(37)35(2)24-12-10-23(11-13-24)32-29(21-7-5-4-6-8-21)28-25-14-9-22(31(39)40-3)19-26(25)33-30(28)38/h4-14,19,33,38H,15-18,20H2,1-3H3
Instrument: Q Exactive
Instrument type: LC-ESI-QFT
Ms type: MS2
Ion mode: NEGATIVE
Ionization: ESI
Fragmentation mode: HCD
Collision energy: 45 % (nominal)
Resolution: 15000
Column name: XBridge C18 3.5um, 2.1x50mm, Waters
Retention time: 7.388 min
Base peak: 538.2455
Precursor m/z: 538.246
Precursor type: [M-H]-
Precursor intensity: 143017272.33
m/z	relative intensity	assigned
119.0615	12	C7H7N2-
133.0406	379	C7H5N2O-
190.0509	37	C10H8NO3-
191.0737	23	C14H9N-
215.0464	14	C11H7N2O3-
246.1483	347	C13H18N4O-
250.0872	299	C16H12NO2-
261.1718	329	C14H21N4O-
324.1266	52	C20H14N5-
338.1296	193	C22H16N3O-
339.1373	466	C22H17N3O-
340.1451	26	C22H18N3O-
396.1349	930	C24H18N3O3-
397.1427	699	C24H19N3O3-
410.1142	939	C24H16N3O4-
538.2453	999	C31H32N5O4-
