Mass spectrum: Mefenpyr-diethyl; LC-ESI-QFT; MS2; CE: 90%; R=15000; [M+H]+
Name: Mefenpyr-diethyl
Name: diethyl 1-(2,4-dichlorophenyl)-5-methyl-4H-pyrazole-3,5-dicarboxylate
Formula: C16H18Cl2N2O4
Exact mass: 372.0643624
SMILES: CCOC(=O)C1=NN(C2=C(Cl)C=C(Cl)C=C2)C(C)(C1)C(=O)OCC
InChI: InChI=1S/C16H18Cl2N2O4/c1-4-23-14(21)12-9-16(3,15(22)24-5-2)20(19-12)13-7-6-10(17)8-11(13)18/h6-8H,4-5,9H2,1-3H3
Instrument: Q Exactive Plus
Instrument type: LC-ESI-QFT
Ms type: MS2
Ion mode: POSITIVE
Ionization: ESI
Fragmentation mode: HCD
Collision energy: 90 % (nominal)
Resolution: 15000
Column name: XBridge C18 3.5um, 2.1x50mm, Waters
Retention time: 11.907 min
Base peak: 373.0719
Precursor m/z: 373.0716
Precursor type: [M+H]+
Precursor intensity: 306650994.19
m/z	relative intensity	assigned
72.9839	30	C3H2Cl+
74.015	44	C6H2+
82.945	31	CHCl2+
84.9839	37	C4H2Cl+
86.9633	95	C3ClO+
98.9996	63	C5H4Cl+
108.984	252	C6H2Cl+
120.9609	18	C4H3Cl2+
123.9949	41	C6H3ClN+
125.0027	80	C6H4ClN+
126.9946	31	C6H4ClO+
128.0023	42	C6H5ClO+
128.0492	12	C9H6N+
132.9606	999	C5H3Cl2+
144.9607	74	C6H3Cl2+
151.0184	26	C8H6ClN+
155.0604	39	C10H7N2+
159.9715	125	C6H4Cl2N+
160.9792	32	C6H5Cl2N+
162.971	60	C6H5Cl2O+
163.0182	28	C9H6ClN+
164.0259	43	C9H7ClN+
172.9667	285	C6H3Cl2N2+
183.9718	12	C8H4Cl2N+
185.9871	233	C8H6Cl2N+
189.0213	108	C10H6ClN2+
190.0294	27	C10H7ClN2+
