Mass spectrum: Atrazine; LC-ESI-QFT; MS2; CE: 60%; R=15000; [M+H]+
Name: Atrazine
Name: 6-chloro-4-N-ethyl-2-N-propan-2-yl-1,3,5-triazine-2,4-diamine
Formula: C8H14ClN5
Exact mass: 215.0937731
SMILES: CCNC1=NC(NC(C)C)=NC(Cl)=N1
InChI: InChI=1S/C8H14ClN5/c1-4-10-7-12-6(9)13-8(14-7)11-5(2)3/h5H,4H2,1-3H3,(H2,10,11,12,13,14)
Instrument: Q Exactive Plus
Instrument type: LC-ESI-QFT
Ms type: MS2
Ion mode: POSITIVE
Ionization: ESI
Fragmentation mode: HCD
Collision energy: 60 % (nominal)
Resolution: 15000
Column name: XBridge C18 3.5um, 2.1x50mm, Waters
Retention time: 7.307 min
Base peak: 216.1013
Precursor m/z: 216.101
Precursor type: [M+H]+
Precursor intensity: 1580307400.38
m/z	relative intensity	assigned
61.9792	16	CHClN+
68.0244	266	C2H2N3+
71.0604	157	C3H7N2+
79.0058	477	CH4ClN2+
90.0105	19	C3H5ClN+
96.0557	681	C4H6N3+
104.001	509	C2H3ClN3+
110.0463	54	C3H4N5+
132.0324	420	C4H7ClN3+
138.0775	121	C5H8N5+
138.1022	14	C7H12N3+
146.0229	302	C3H5ClN5+
174.0542	999	C5H9ClN5+
216.1012	75	C8H15ClN5+
