Mass spectrum: Elvitegravir; LC-ESI-QFT; MS2; CE: 60%; R=15000; [M+H]+
Name: Elvitegravir
Name: 6-[(3-chloro-2-fluorophenyl)methyl]-1-[(2S)-1-hydroxy-3-methylbutan-2-yl]-7-methoxy-4-oxo-1,4-dihydroquinoline-3-carboxylic acid
Name: 6-[(3-chloranyl-2-fluoranyl-phenyl)methyl]-7-methoxy-1-[(2S)-3-methyl-1-oxidanyl-butan-2-yl]-4-oxidanylidene-quinoline-3-carboxylic acid
Formula: C23H23ClFNO5
Exact mass: 447.1248787
SMILES: CC(C)C(CO)N1C=C(C(=O)C2=C1C=C(C(=C2)CC3=C(C(=CC=C3)Cl)F)OC)C(=O)O
InChI: InChI=1S/C23H23ClFNO5/c1-12(2)19(11-27)26-10-16(23(29)30)22(28)15-8-14(20(31-3)9-18(15)26)7-13-5-4-6-17(24)21(13)25/h4-6,8-10,12,19,27H,7,11H2,1-3H3,(H,29,30)
Instrument: Q Exactive
Instrument type: LC-ESI-QFT
Ms type: MS2
Ion mode: POSITIVE
Ionization: ESI
Fragmentation mode: HCD
Collision energy: 60 % (nominal)
Resolution: 15000
Column name: XBridge C18 3.5um, 2.1x50mm, Waters
Retention time: 12.186 min
Base peak: 448.1326
Precursor m/z: 448.1322
Precursor type: [M+H]+
Precursor intensity: 123153722.07
m/z	relative intensity	assigned
69.0699	130	C5H9+
143.0058	999	C7H5ClF+
242.0612	162	C14H9FNO2+
245.0401	156	C14H9ClFN+
266.0611	29	C16H9FNO2+
301.0299	42	C16H9ClFNO2+
