Mass spectrum: ortho-Hydroxyatorvastatin; LC-ESI-QFT; MS2; CE: 90%; R=17500; [M+H]+
Name: ortho-Hydroxyatorvastatin
Name: Orthohydroxyatorvastatin
Name: (3R,5R)-7-[2-(4-fluorophenyl)-4-[(2-hydroxyphenyl)carbamoyl]-3-phenyl-5-propan-2-ylpyrrol-1-yl]-3,5-dihydroxyheptanoic acid
Formula: C33H35FN2O6
Exact mass: 574.2479151
SMILES: CC(C1=C(C(NC2=CC=CC=C2O)=O)C(C3=CC=CC=C3)=C(C4=CC=C(F)C=C4)N1CC[C@@H](O)C[C@@H](O)CC(O)=O)C
InChI: InChI=1S/C33H35FN2O6/c1-20(2)31-30(33(42)35-26-10-6-7-11-27(26)39)29(21-8-4-3-5-9-21)32(22-12-14-23(34)15-13-22)36(31)17-16-24(37)18-25(38)19-28(40)41/h3-15,20,24-25,37-39H,16-19H2,1-2H3,(H,35,42)(H,40,41)/t24-,25-/m1/s1
Instrument: Exploris 240 Orbitrap Thermo Scientific
Instrument type: LC-ESI-QFT
Ms type: MS2
Ion mode: POSITIVE
Ionization: ESI
Fragmentation mode: HCD
Collision energy: 90 % (nominal)
Resolution: 17500
Column name: XBridge C18 3.5um, 2.1x50mm, Waters
Retention time: 9.950 min
Base peak: 575.2551
Precursor m/z: 575.2552
Precursor type: [M+H]+
m/z	relative intensity	assigned
65.0388	19	C5H5+
69.0336	59	C4H5O+
71.0128	63	C3H3O2+
71.0493	40	C4H7O+
77.0386	59	C6H5+
79.0543	138	C6H7+
80.0495	909	C5H6N+
83.049	87	C5H7O+
91.0543	83	C7H7+
95.0495	21	C6H7O+
103.0545	52	C8H7+
104.0494	126	C7H6N+
108.0444	278	C6H6NO+
109.0446	108	C7H6F+
115.0541	245	C9H7+
117.0576	76	C8H7N+
122.0403	135	C7H5FN+
127.0545	129	C10H7+
128.0498	43	C9H6N+
128.0623	114	C10H8+
129.0698	88	C10H9+
130.0658	48	C6H9FNO+
133.0447	209	C9H6F+
135.0482	49	C8H6FN+
141.0704	44	C11H9+
145.0448	25	C10H6F+
145.065	53	C10H9O+
146.0532	56	C10H7F+
147.0609	34	CH11N2O6+
148.0563	32	C9H7FN+
153.0705	64	C12H9+
154.0649	250	C11H8N+
155.0603	143	C10H7N2+
167.0725	39	C12H9N+
172.0558	152	C11H7FN+
180.0808	44	C13H10N+
183.0606	53	C13H8F+
189.0705	45	C12H10FO+
198.0722	46	C13H9FN+
202.0781	248	C16H10+
203.0861	146	C16H11+
207.0616	37	C6H11N2O6+
208.069	46	C6H12N2O6+
209.0764	259	C15H10F+
217.0891	70	C16H11N+
218.0977	27	C13H13FNO+
220.0684	118	C16H9F+
221.0764	173	C16H10F+
228.0816	34	C17H10N+
230.0971	163	C17H12N+
233.0763	492	C17H10F+
235.0792	698	C16H10FN+
236.0878	121	C16H11FN+
237.0958	95	C16H12FN+
238.1032	61	C16H13FN+
241.0899	21	C15H12FNO+
248.0872	999	C17H11FN+
249.0949	324	C17H12FN+
250.1028	847	C17H13FN+
260.0867	109	C18H11FN+
261.0948	272	C18H12FN+
262.1024	275	C18H13FN+
263.1117	45	C18H14FN+
264.0829	40	C17H11FNO+
264.1189	69	C18H15FN+
274.1027	197	C19H13FN+
275.1118	58	C19H14FN+
276.0823	81	C18H11FNO+
276.118	475	C19H15FN+
286.1036	26	C20H13FN+
287.1113	47	C20H14FN+
290.0967	23	C22H12N+
290.1348	43	C20H17FN+
300.1194	45	C21H15FN+
302.1337	63	C21H17FN+
