Mass spectrum: Diazepam; LC-ESI-QFT; MS2; CE: 45%; R=15000; [M+H]+
Name: Diazepam
Name: 7-chloro-1-methyl-5-phenyl-3H-1,4-benzodiazepin-2-one
Formula: C16H13ClN2O
Exact mass: 284.0716407
SMILES: CN1C2=C(C=C(Cl)C=C2)C(=NCC1=O)C1=CC=CC=C1
InChI: InChI=1S/C16H13ClN2O/c1-19-14-8-7-12(17)9-13(14)16(18-10-15(19)20)11-5-3-2-4-6-11/h2-9H,10H2,1H3
Instrument: Q Exactive Plus
Instrument type: LC-ESI-QFT
Ms type: MS2
Ion mode: POSITIVE
Ionization: ESI
Fragmentation mode: HCD
Collision energy: 45 % (nominal)
Resolution: 15000
Column name: XBridge C18 3.5um, 2.1x50mm, Waters
Retention time: 8.885 min
Base peak: 285.079
Precursor m/z: 285.0789
Precursor type: [M+H]+
Precursor intensity: 504649844.09
m/z	relative intensity	assigned
58.0287	12	C2H4NO+
91.0543	49	C7H7+
105.0335	84	C7H5O+
117.0573	10	C8H7N+
147.0679	17	C9H9NO+
154.0417	443	C8H9ClN+
167.0133	35	C8H6ClNO+
172.063	35	C10H8N2O+
179.037	40	C9H8ClN2+
180.021	41	C9H7ClNO+
182.0366	118	C9H9ClNO+
193.0886	217	C14H11N+
216.0574	15	C13H11ClN+
221.107	30	C15H13N2+
222.1151	271	C15H14N2+
226.0419	10	C14H9ClN+
227.05	20	C14H10ClN+
228.0573	242	C14H11ClN+
230.0736	13	C14H13ClN+
241.0523	32	C14H10ClN2+
242.0596	11	C14H11ClN2+
255.0681	27	C15H12ClN2+
257.0838	338	C15H14ClN2+
285.0789	999	C16H14ClN2O+
