Mass spectrum: tau-Fluvalinate; LC-ESI-QFT; MS2; CE: 180%; R=15000; [M+H]+
Name: tau-Fluvalinate
Name: Fluvalinate
Name: [cyano-(3-phenoxyphenyl)methyl] 2-[2-chloro-4-(trifluoromethyl)anilino]-3-methylbutanoate
Formula: C26H22ClF3N2O3
Exact mass: 502.1271049
SMILES: CC(C)C(C(=O)OC(C#N)C1=CC(=CC=C1)OC2=CC=CC=C2)NC3=C(C=C(C=C3)C(F)(F)F)Cl
InChI: InChI=1S/C26H22ClF3N2O3/c1-16(2)24(32-22-12-11-18(14-21(22)27)26(28,29)30)25(33)35-23(15-31)17-7-6-10-20(13-17)34-19-8-4-3-5-9-19/h3-14,16,23-24,32H,1-2H3
Instrument: Q Exactive Plus
Instrument type: LC-ESI-QFT
Ms type: MS2
Ion mode: POSITIVE
Ionization: ESI
Fragmentation mode: HCD
Collision energy: 180 % (nominal)
Resolution: 15000
Column name: XBridge C18 3.5um, 2.1x50mm, Waters
Retention time: 16.348 min
Base peak: 503.1345
Precursor m/z: 503.1344
Precursor type: [M+H]+
Precursor intensity: 56663198.69
m/z	relative intensity	assigned
50.0151	909	C4H2+
51.0229	999	C4H3+
52.0182	33	C3H2N+
52.0307	52	C4H4+
53.0386	234	C4H5+
55.0178	32	C3H3O+
61.0073	249	C5H+
62.015	521	C5H2+
63.0229	590	C5H3+
64.0182	37	C4H2N+
65.0021	98	C4HO+
65.0385	134	C5H5+
68.9947	22	CF3+
74.015	822	C6H2+
75.0229	829	C6H3+
76.0183	51	C5H2N+
76.0306	263	C6H4+
78.0464	203	C6H6+
86.0151	208	C7H2+
87.0229	317	C7H3+
88.0182	68	C6H2N+
89.0385	263	C7H5+
91.0541	50	C7H7+
95.0491	707	C6H7O+
98.015	304	C8H2+
100.0305	78	C8H4+
102.0463	388	C8H6+
103.0542	21	C8H7+
105.0447	187	C6H5N2+
111.0228	44	C9H3+
113.0385	210	C9H5+
115.0542	208	C9H7+
119.0493	46	C8H7O+
125.0196	27	C7H3F2+
125.0385	98	C10H5+
126.0463	835	C10H6+
127.0543	57	C10H7+
129.0445	71	C8H5N2+
137.0388	71	C11H5+
139.0541	191	C11H7+
140.0494	44	C10H6N+
145.0649	58	C10H9O+
150.0463	947	C12H6+
152.0619	474	C12H8+
155.0603	32	C10H7N2+
164.0492	26	C12H6N+
169.0646	645	C12H9O+
177.0573	58	C13H7N+
