Mass spectrum: Clodinafop-propargyl; LC-ESI-QFT; MS2; CE: 90%; R=15000; [M+H]+
Name: Clodinafop-propargyl
Name: 2-(4-((5-Chloro-3-fluoro-2-pyridinyl)oxy)phenoxy)propanoic acid 2-propyn-1-yl ester
Name: prop-2-ynyl 2-[4-(5-chloro-3-fluoropyridin-2-yl)oxyphenoxy]propanoate
Formula: C17H13ClFNO4
Exact mass: 349.0517138
SMILES: CC(C(=O)OCC#C)OC1=CC=C(C=C1)OC2=NC=C(C=C2F)Cl
InChI: InChI=1S/C17H13ClFNO4/c1-3-8-22-17(21)11(2)23-13-4-6-14(7-5-13)24-16-15(19)9-12(18)10-20-16/h1,4-7,9-11H,8H2,2H3
Instrument: Exploris 240 Thermo Scientific
Instrument type: LC-ESI-QFT
Ms type: MS2
Ion mode: POSITIVE
Ionization: ESI
Fragmentation mode: HCD
Collision energy: 90 % (nominal)
Resolution: 15000
Column name: XBridge C18 3.5um, 2.1x50mm, Waters
Retention time: 10.935 min
Base peak: 350.0585
Precursor m/z: 350.059
Precursor type: [M+H]+
m/z	relative intensity	assigned
53.0385	17	C4H5+
55.0179	25	C3H3O+
63.0228	53	C5H3+
64.0307	32	C5H4+
65.0385	357	C5H5+
75.0229	119	C6H3+
77.0385	64	C6H5+
81.0335	20	C5H5O+
90.0336	22	C6H4N+
91.0541	999	C7H7+
92.0256	102	C6H4O+
92.0619	42	C7H8+
94.0413	33	C6H6O+
95.0492	42	C6H7O+
102.0464	20	C8H6+
103.0544	38	C8H7+
109.9792	30	C5HClN+
129.9853	68	C5H2ClFN+
131.0491	42	C9H7O+
132.0369	24	C9H5F+
147.9958	181	C5H4ClFNO+
158.0397	124	C10H5FN+
159.0476	425	C10H6FN+
167.0056	36	C9H5ClF+
169.0093	17	C8H5ClFN+
176.0503	175	C13H6N+
182.0162	29	C12H3FO+
185.0635	19	C12H8FN+
187.0427	106	C11H6FNO+
222.0112	234	C14H3FO2+
238.0061	162	C11H6ClFNO2+
