Mass spectrum: Lercanidipine; LC-ESI-QFT; MS2; CE: 150%; R=17500; [M+H]+
Name: Lercanidipine
Name: 5-O-[1-[3,3-diphenylpropyl(methyl)amino]-2-methylpropan-2-yl] 3-O-methyl 2,6-dimethyl-4-(3-nitrophenyl)-1,4-dihydropyridine-3,5-dicarboxylate
Formula: C36H41N3O6
Exact mass: 611.299536032
SMILES: CC1=C(C(C(=C(N1)C)C(=O)OC(C)(C)CN(C)CCC(C2=CC=CC=C2)C3=CC=CC=C3)C4=CC(=CC=C4)[N+](=O)[O-])C(=O)OC
InChI: InChI=1S/C36H41N3O6/c1-24-31(34(40)44-6)33(28-18-13-19-29(22-28)39(42)43)32(25(2)37-24)35(41)45-36(3,4)23-38(5)21-20-30(26-14-9-7-10-15-26)27-16-11-8-12-17-27/h7-19,22,30,33,37H,20-21,23H2,1-6H3
Instrument: Exploris 240 Orbitrap Thermo Scientific
Instrument type: LC-ESI-QFT
Ms type: MS2
Ion mode: POSITIVE
Ionization: ESI
Fragmentation mode: HCD
Collision energy: 150 % (nominal)
Resolution: 17500
Column name: XBridge C18 3.5um, 2.1x50mm, Waters
Retention time: 11.139 min
Base peak: 132.9582
Precursor m/z: 612.3068
Precursor type: [M+H]+
m/z	relative intensity	assigned
65.0385	579	C5H5+
67.0178	221	C4H3O+
70.0651	140	C4H8N+
71.0729	46	C4H9N+
77.0386	51	C6H5+
78.0463	38	C6H6+
89.0385	77	C7H5+
91.0542	980	C7H7+
95.0491	33	C6H7O+
102.0467	43	C8H6+
105.0448	19	C6H5N2+
115.0542	695	C9H7+
126.0465	68	C10H6+
127.054	86	C10H7+
128.062	201	C10H8+
139.0542	269	C11H7+
140.0499	64	C10H6N+
140.0619	23	C11H8+
141.07	73	C11H9+
145.0645	20	C10H9O+
150.0466	43	C12H6+
151.0542	89	C12H7+
152.062	953	C12H8+
153.07	47	C12H9+
154.0656	46	C11H8N+
155.0608	26	C10H7N2+
163.0542	62	C13H7+
164.0626	99	C13H8+
165.0699	999	C13H9+
166.0649	39	C12H8N+
167.0731	88	C12H9N+
169.065	80	C12H9O+
180.0814	63	C13H10N+
