Mass spectrum: Fluralaner; LC-ESI-QFT; MS2; CE: 60%; R=17500; [M-H]-
Name: Fluralaner
Name: 4-[5-(3,5-dichlorophenyl)-5-(trifluoromethyl)-4H-1,2-oxazol-3-yl]-2-methyl-N-[2-oxo-2-(2,2,2-trifluoroethylamino)ethyl]benzamide
Formula: C22H17Cl2F6N3O3
Exact mass: 555.055116084
SMILES: CC1=C(C=CC(=C1)C2=NOC(C2)(C3=CC(=CC(=C3)Cl)Cl)C(F)(F)F)C(=O)NCC(=O)NCC(F)(F)F
InChI: InChI=1S/C22H17Cl2F6N3O3/c1-11-4-12(2-3-16(11)19(35)31-9-18(34)32-10-21(25,26)27)17-8-20(36-33-17,22(28,29)30)13-5-14(23)7-15(24)6-13/h2-7H,8-10H2,1H3,(H,31,35)(H,32,34)
Instrument: Exploris 240 Orbitrap Thermo Scientific
Instrument type: LC-ESI-QFT
Ms type: MS2
Ion mode: NEGATIVE
Ionization: ESI
Fragmentation mode: HCD
Collision energy: 60 % (nominal)
Resolution: 17500
Column name: XBridge C18 3.5um, 2.1x50mm, Waters
Retention time: 13.362 min
Base peak: 311.1686
Precursor m/z: 554.0478
Precursor type: [M-H]-
m/z	relative intensity	assigned
65.0144	33	C3HN2-
65.9985	674	C3NO-
67.0303	43	C3H3N2-
68.0142	23	C3H2NO-
68.9957	558	CF3-
76.0005	28	C2F2N-
86.0047	222	C3HFNO-
94.0173	149	C4H2N2O-
95.0251	677	C4H3N2O-
103.9954	48	C3F2NO-
113.0157	662	C4H2FN2O-
115.0308	92	C4H4FN2O-
116.0506	35	C8H6N-
130.0664	107	C9H8N-
132.0455	130	C8H6NO-
144.9618	41	C6H3Cl2-
161.017	70	C5H3F2N2O2-
167.0612	135	C3H8F5N2-
168.0458	37	C11H6NO-
169.0772	51	C11H9N2-
169.9569	90	C7H2Cl2N-
183.057	103	C5H12ClF4-
185.0355	267	C2H6F5N2O2-
185.071	33	C6H9F4N2-
199.051	114	C8H11ClF3-
209.0721	43	C13H9N2O-
211.9675	999	C9H4Cl2NO-
213.0668	72	C4H10F5N2O2-
215.0467	29	C11H7N2O3-
219.99	137	C7F4N2O2-
226.0621	127	C4H9F5N3O2-
238.0622	58	C10H10F4O2-
252.0776	23	C6H11F5N3O2-
266.0365	26	C11H9ClF4N-
327.0104	36	C17H7ClFNO3-
