Mass spectrum: 4-Hydroxypropanolol-sulfate; LC-ESI-QFT; MS2; CE: 75%; R=17500; [M+H]+
Name: 4-Hydroxypropanolol-sulfate
Name: 4-[2-Hydroxy-3-(propan-2-ylamino)propoxy]naphthalen-1-yl hydrogen sulfate
Name: [4-[2-hydroxy-3-(propan-2-ylamino)propoxy]naphthalen-1-yl] hydrogen sulfate
Name: HOPS
Formula: C16H21NO6S
Exact mass: 355.1089584
SMILES: CC(C)NCC(COC1=CC=C(C2=CC=CC=C21)OS(=O)(=O)O)O
InChI: InChI=1S/C16H21NO6S/c1-11(2)17-9-12(18)10-22-15-7-8-16(23-24(19,20)21)14-6-4-3-5-13(14)15/h3-8,11-12,17-18H,9-10H2,1-2H3,(H,19,20,21)
Instrument: Exploris 240 Orbitrap Thermo Scientific
Instrument type: LC-ESI-QFT
Ms type: MS2
Ion mode: POSITIVE
Ionization: ESI
Fragmentation mode: HCD
Collision energy: 75 % (nominal)
Resolution: 17500
Column name: XBridge C18 3.5um, 2.1x50mm, Waters
Retention time: 3.203 min
Base peak: 356.1162
Precursor m/z: 356.1162
Precursor type: [M+H]+
m/z	relative intensity	assigned
56.0495	521	C3H6N+
58.0651	999	C3H8N+
60.0807	16	C3H10N+
72.0808	419	C4H10N+
74.0601	287	C3H8NO+
84.0807	55	C5H10N+
98.0962	39	C6H12N+
100.1121	207	C6H14N+
105.0335	58	C7H5O+
115.0544	31	C9H7+
116.1071	151	C6H14NO+
117.0702	33	C9H9+
128.0624	46	C10H8+
129.0701	20	C10H9+
131.0495	26	C9H7O+
141.0701	15	C11H9+
143.0494	18	C10H7O+
143.0859	53	C11H11+
145.0645	50	C10H9O+
152.0618	24	C12H8+
153.0698	79	C12H9+
157.0645	39	C11H9O+
159.0443	24	C10H7O2+
171.0447	21	C11H7O2+
171.0805	84	C12H11O+
173.0597	93	C11H9O2+
181.0654	36	C13H9O+
199.0761	23	C13H11O2+
