Mass spectrum: Licarbazepine; LC-ESI-QFT; MS2; CE: 180%; R=17500; [M+H]+
Name: Licarbazepine
Name: 5-hydroxy-5,6-dihydrobenzo[b][1]benzazepine-11-carboxamide
Formula: C15H14N2O2
Exact mass: 254.1055277
SMILES: C1C(C2=CC=CC=C2N(C3=CC=CC=C31)C(=O)N)O
InChI: InChI=1S/C15H14N2O2/c16-15(19)17-12-7-3-1-5-10(12)9-14(18)11-6-2-4-8-13(11)17/h1-8,14,18H,9H2,(H2,16,19)
Instrument: Exploris 240 Orbitrap Thermo Scientific
Instrument type: LC-ESI-QFT
Ms type: MS2
Ion mode: POSITIVE
Ionization: ESI
Fragmentation mode: HCD
Collision energy: 180 % (nominal)
Resolution: 17500
Column name: XBridge C18 3.5um, 2.1x50mm, Waters
Retention time: 5.085 min
Base peak: 237.1021
Precursor m/z: 255.1128
Precursor type: [M+H]+
m/z	relative intensity	assigned
51.0231	132	C4H3+
63.0229	243	C5H3+
65.0386	273	C5H5+
77.0386	89	C6H5+
89.0386	993	C7H5+
90.0465	195	C7H6+
91.0544	97	C7H7+
95.0491	54	C6H7O+
115.0542	345	C9H7+
125.0388	74	C10H5+
126.0463	251	C10H6+
127.0539	54	C10H7+
128.0494	90	C9H6N+
139.0542	569	C11H7+
140.0498	354	C10H6N+
150.0465	347	C12H6+
151.0542	330	C12H7+
152.049	38	C11H6N+
152.0622	298	C12H8+
153.0575	112	C11H7N+
163.0543	451	C13H7+
165.0702	741	C13H9+
166.0647	286	C12H8N+
167.073	153	C12H9N+
168.0567	60	C12H8O+
169.0649	214	C12H9O+
176.0626	43	C14H8+
177.0576	216	C13H7N+
178.0652	235	C13H8N+
190.0652	784	C14H8N+
191.073	999	C14H9N+
192.0808	211	C14H10N+
