Mass spectrum: Butralin; LC-ESI-QFT; MS2; CE: 60%; R=15000; [M+H]+
Name: Butralin
Name: N-butan-2-yl-4-tert-butyl-2,6-dinitroaniline
Formula: C14H21N3O4
Exact mass: 295.1532062
SMILES: CCC(C)NC1=C(C=C(C=C1[N+](=O)[O-])C(C)(C)C)[N+](=O)[O-]
InChI: InChI=1S/C14H21N3O4/c1-6-9(2)15-13-11(16(18)19)7-10(14(3,4)5)8-12(13)17(20)21/h7-9,15H,6H2,1-5H3
Instrument: Exploris 240 Thermo Scientific
Instrument type: LC-ESI-QFT
Ms type: MS2
Ion mode: POSITIVE
Ionization: ESI
Fragmentation mode: HCD
Collision energy: 60 % (nominal)
Resolution: 15000
Column name: XBridge C18 3.5um, 2.1x50mm, Waters
Retention time: 14.802 min
Base peak: 296.1602
Precursor m/z: 296.1605
Precursor type: [M+H]+
m/z	relative intensity	assigned
57.0699	993	C4H9+
104.0498	40	C7H6N+
105.0699	92	C8H9+
118.0651	40	C8H8N+
130.065	90	C9H8N+
132.0807	161	C9H10N+
134.0603	27	C8H8NO+
135.0556	41	C7H7N2O+
149.0222	57	C6H3N3O2+
161.0706	182	C9H9N2O+
205.0844	117	C10H11N3O2+
208.0716	541	C9H10N3O3+
222.0874	999	C10H12N3O3+
223.0954	309	C10H13N3O3+
240.0979	217	C10H14N3O4+
