Mass spectrum: Chloridazon; LC-ESI-QFT; MS2; CE: 150%; R=15000; [M+H]+
Name: Chloridazon
Name: 5-amino-4-chloro-2-phenylpyridazin-3-one
Formula: C10H8ClN3O
Exact mass: 221.0355896
SMILES: NC1=C(Cl)C(=O)N(N=C1)C1=CC=CC=C1
InChI: InChI=1S/C10H8ClN3O/c11-9-8(12)6-13-14(10(9)15)7-4-2-1-3-5-7/h1-6H,12H2
Instrument: Q Exactive Plus
Instrument type: LC-ESI-QFT
Ms type: MS2
Ion mode: POSITIVE
Ionization: ESI
Fragmentation mode: HCD
Collision energy: 150 % (nominal)
Resolution: 15000
Column name: XBridge C18 3.5um, 2.1x50mm, Waters
Retention time: 4.559 min
Base peak: 222.043
Precursor m/z: 222.0429
Precursor type: [M+H]+
Precursor intensity: 516363769.41
m/z	relative intensity	assigned
50.0151	341	C4H2+
51.023	988	C4H3+
52.0182	135	C3H2N+
53.0022	13	C3HO+
53.026	27	C3H3N+
53.0386	154	C4H5+
54.0339	26	C3H4N+
55.0291	95	C2H3N2+
60.9839	12	C2H2Cl+
62.9634	11	CClO+
63.0229	29	C5H3+
63.995	58	CH3ClN+
65.0386	999	C5H5+
66.0213	453	C3H2N2+
66.0464	72	C5H6+
67.0291	12	C3H3N2+
68.0131	14	C3H2NO+
72.9839	21	C3H2Cl+
73.9792	100	C2HClN+
74.987	36	C2H2ClN+
75.0229	13	C6H3+
75.9948	36	C2H3ClN+
77.0386	251	C6H5+
81.0333	15	C5H5O+
87.9949	226	C3H3ClN+
89.0386	17	C7H5+
92.0496	65	C6H6N+
93.0574	109	C6H7N+
95.0492	489	C6H7O+
100.9902	65	C3H2ClN2+
103.0544	23	C8H7+
104.0492	36	C7H6N+
105.0448	159	C6H5N2+
114.0338	17	C8H4N+
116.9975	22	C4H4ClNO+
122.9995	20	C7H4Cl+
