Mass spectrum: Naloxone; LC-ESI-QFT; MS2; CE: 70%; R=15000; [M+H]+
Name: Naloxone
Name: (4R,4aS,7aR,12bS)-4a,9-bis(oxidanyl)-3-prop-2-enyl-2,4,5,6,7a,13-hexahydro-1H-4,12-methanobenzofuro[3,2-e]isoquinolin-7-one
Formula: C19H21NO4
Exact mass: 327.1470582
SMILES: C=CCN1CCC23C4C(=O)CCC2(C1CC5=C3C(=C(C=C5)O)O4)O
InChI: InChI=1S/C19H21NO4/c1-2-8-20-9-7-18-15-11-3-4-12(21)16(15)24-17(18)13(22)5-6-19(18,23)14(20)10-11/h2-4,14,17,21,23H,1,5-10H2
Instrument: Exploris 240 Thermo Scientific
Instrument type: LC-ESI-QFT
Ms type: MS2
Ion mode: POSITIVE
Ionization: ESI
Fragmentation mode: HCD
Collision energy: 70 % (nominal)
Resolution: 15000
Column name: XBridge C18 3.5um, 2.1x50mm, Waters
Retention time: 2.062 min
Base peak: 328.1539
Precursor m/z: 328.1543
Precursor type: [M+H]+
m/z	relative intensity	assigned
51.0229	35	C4H3+
53.0387	54	C4H5+
55.0179	89	C3H3O+
65.0386	113	C5H5+
77.0385	65	C6H5+
79.0543	43	C6H7+
89.0386	140	C7H5+
91.0541	229	C7H7+
95.0491	134	C6H7O+
102.0467	74	C8H6+
103.0542	153	C8H7+
115.0542	707	C9H7+
117.0574	86	C8H7N+
118.0414	72	C8H6O+
127.054	165	C10H7+
128.062	999	C10H8+
129.0699	96	C10H9+
131.049	78	C9H7O+
139.054	241	C11H7+
140.0493	72	C10H6N+
140.062	34	C11H8+
141.0701	100	C11H9+
145.0643	138	C10H9O+
152.0619	458	C12H8+
153.0701	91	C12H9+
154.0648	351	C11H8N+
156.0565	48	C11H8O+
156.0811	42	C11H10N+
157.0646	64	C11H9O+
165.0699	121	C13H9+
166.0655	80	C12H8N+
167.0731	131	C12H9N+
176.0624	32	C14H8+
180.0814	97	C13H10N+
183.0679	187	C12H9NO+
185.0593	55	C12H9O2+
202.0776	887	C16H10+
