Mass spectrum: Valeryl-4-hydroxyvalsartan; LC-ESI-QFT; MS2; CE: 45%; R=17500; [M-H]-
Name: Valeryl-4-hydroxyvalsartan
Name: 2-[4-hydroxypentanoyl-[[4-[2-(2H-tetrazol-5-yl)phenyl]phenyl]methyl]amino]-3-methylbutanoic acid
Formula: C24H29N5O4
Exact mass: 451.2219544
SMILES: CC(C)C(C(=O)O)N(CC1=CC=C(C=C1)C2=CC=CC=C2C3=NNN=N3)C(=O)CCC(C)O
InChI: InChI=1S/C24H29N5O4/c1-15(2)22(24(32)33)29(21(31)13-8-16(3)30)14-17-9-11-18(12-10-17)19-6-4-5-7-20(19)23-25-27-28-26-23/h4-7,9-12,15-16,22,30H,8,13-14H2,1-3H3,(H,32,33)(H,25,26,27,28)
Instrument: Exploris 240 Orbitrap Thermo Scientific
Instrument type: LC-ESI-QFT
Ms type: MS2
Ion mode: NEGATIVE
Ionization: ESI
Fragmentation mode: HCD
Collision energy: 45 % (nominal)
Resolution: 17500
Column name: XBridge C18 3.5um, 2.1x50mm, Waters
Retention time: 6.678 min
Base peak: 450.2145
Precursor m/z: 450.2147
Precursor type: [M-H]-
m/z	relative intensity	assigned
71.0501	29	C4H7O-
81.0346	28	C5H5O-
99.0449	48	C5H7O2-
101.0607	66	C5H9O2-
116.0717	603	C5H10NO2-
117.0556	25	C5H9O3-
128.1081	184	C7H14NO-
154.0873	24	C8H12NO2-
154.1239	108	C9H16NO-
156.1029	22	C8H14NO2-
164.0626	11	C13H8-
165.0712	80	C13H9-
170.1186	130	C9H16NO2-
172.1341	104	C9H18NO2-
178.0795	312	C14H10-
179.0866	999	C14H11-
192.0815	150	C14H10N-
206.0846	41	C14H10N2-
207.0925	42	C14H11N2-
222.1033	17	C14H12N3-
234.0906	29	C14H10N4-
235.0989	99	C14H11N4-
248.1447	67	C18H18N-
250.1091	34	C13H16NO4-
250.16	49	C18H20N-
276.1505	121	C18H18N3-
278.1657	19	C18H20N3-
304.1563	54	C18H18N5-
307.1449	121	C19H19N2O2-
350.1616	74	C19H20N5O2-
