Mass spectrum: Valeryl-4-hydroxyvalsartan; LC-ESI-QFT; MS2; CE: 75%; R=17500; [M+H]+
Name: Valeryl-4-hydroxyvalsartan
Name: 2-[4-hydroxypentanoyl-[[4-[2-(2H-tetrazol-5-yl)phenyl]phenyl]methyl]amino]-3-methylbutanoic acid
Formula: C24H29N5O4
Exact mass: 451.2219544
SMILES: CC(C)C(C(=O)O)N(CC1=CC=C(C=C1)C2=CC=CC=C2C3=NNN=N3)C(=O)CCC(C)O
InChI: InChI=1S/C24H29N5O4/c1-15(2)22(24(32)33)29(21(31)13-8-16(3)30)14-17-9-11-18(12-10-17)19-6-4-5-7-20(19)23-25-27-28-26-23/h4-7,9-12,15-16,22,30H,8,13-14H2,1-3H3,(H,32,33)(H,25,26,27,28)
Instrument: Exploris 240 Orbitrap Thermo Scientific
Instrument type: LC-ESI-QFT
Ms type: MS2
Ion mode: POSITIVE
Ionization: ESI
Fragmentation mode: HCD
Collision energy: 75 % (nominal)
Resolution: 17500
Column name: XBridge C18 3.5um, 2.1x50mm, Waters
Retention time: 6.688 min
Base peak: 452.2288
Precursor m/z: 452.2292
Precursor type: [M+H]+
m/z	relative intensity	assigned
55.0542	87	C4H7+
72.0808	82	C4H10N+
77.0385	52	C6H5+
80.0496	48	C5H6N+
84.0811	17	C5H10N+
95.0491	12	C6H7O+
105.045	20	C6H5N2+
115.0548	27	C9H7+
140.0495	115	C10H6N+
141.0702	12	C11H9+
151.0548	44	C12H7+
152.062	230	C12H8+
153.0699	578	C12H9+
163.0539	125	C13H7+
165.0707	75	C13H9+
167.0731	82	C12H9N+
168.0688	26	C11H8N2+
180.0807	999	C13H10N+
190.0651	920	C14H8N+
191.0734	222	C14H9N+
192.0676	421	C13H8N2+
196.0762	22	C13H10NO+
205.076	517	C14H9N2+
206.0838	530	C14H10N2+
207.0918	331	C14H11N2+
