Mass spectrum: Pilocarpine; LC-ESI-QFT; MS2; CE: 50%; R=15000; [M+H]+
Name: Pilocarpine
Name: (3S,4R)-3-ethyl-4-[(3-methylimidazol-4-yl)methyl]oxolan-2-one
Name: 3-ethyl-4-[(3-methylimidazol-4-yl)methyl]oxolan-2-one
Formula: C11H16N2O2
Exact mass: 208.1211778
SMILES: CCC1C(COC1=O)CC2=CN=CN2C
InChI: InChI=1S/C11H16N2O2/c1-3-10-8(6-15-11(10)14)4-9-5-12-7-13(9)2/h5,7-8,10H,3-4,6H2,1-2H3
Instrument: Exploris 240 Thermo Scientific
Instrument type: LC-ESI-QFT
Ms type: MS2
Ion mode: POSITIVE
Ionization: ESI
Fragmentation mode: HCD
Collision energy: 50 % (nominal)
Resolution: 15000
Column name: XBridge C18 3.5um, 2.1x50mm, Waters
Retention time: 1.369 min
Base peak: 209.128
Precursor m/z: 209.1285
Precursor type: [M+H]+
m/z	relative intensity	assigned
54.0338	26	C3H4N+
55.0416	13	C3H5N+
55.0542	23	C4H7+
68.0495	51	C4H6N+
80.0494	20	C5H6N+
81.0448	38	C4H5N2+
83.0601	18	C4H7N2+
94.0651	44	C6H8N+
95.0603	792	C5H7N2+
96.0682	999	C5H8N2+
97.076	18	C5H9N2+
107.0729	14	C7H9N+
109.0759	39	C6H9N2+
121.0759	103	C7H9N2+
122.0839	24	C7H10N2+
122.0962	13	C8H12N+
123.0916	35	C7H11N2+
133.0762	30	C8H9N2+
134.0838	20	C8H10N2+
135.0916	39	C8H11N2+
147.0913	19	C9H11N2+
163.1232	34	C10H15N2+
209.1282	36	C11H17N2O2+
