Mass spectrum: Flumioxazin; LC-ESI-QFT; MS2; CE: 75%; R=15000; [M+H]+
Name: Flumioxazin
Name: 2-(7-fluoro-3-oxo-4-prop-2-ynyl-1,4-benzoxazin-6-yl)-4,5,6,7-tetrahydroisoindole-1,3-dione
Formula: C19H15FN2O4
Exact mass: 354.1015852
SMILES: FC1=CC2=C(C=C1N1C(=O)C3=C(CCCC3)C1=O)N(CC#C)C(=O)CO2
InChI: InChI=1S/C19H15FN2O4/c1-2-7-21-15-9-14(13(20)8-16(15)26-10-17(21)23)22-18(24)11-5-3-4-6-12(11)19(22)25/h1,8-9H,3-7,10H2
Instrument: Q Exactive Plus
Instrument type: LC-ESI-QFT
Ms type: MS2
Ion mode: POSITIVE
Ionization: ESI
Fragmentation mode: HCD
Collision energy: 75 % (nominal)
Resolution: 15000
Column name: XBridge C18 3.5um, 2.1x50mm, Waters
Retention time: 8.237 min
Base peak: 355.1091
Precursor m/z: 355.1089
Precursor type: [M+H]+
Precursor intensity: 108809856.34
m/z	relative intensity	assigned
50.0152	17	C4H2+
51.023	66	C4H3+
53.0386	247	C4H5+
54.0338	15	C3H4N+
55.0178	31	C3H3O+
67.0177	11	C4H3O+
67.0415	18	C4H5N+
67.0541	31	C5H7+
68.0494	36	C4H6N+
77.0386	123	C6H5+
78.0338	38	C5H4N+
79.0542	999	C6H7+
80.062	73	C6H8+
81.0336	46	C5H5O+
81.0699	89	C6H9+
83.0291	12	C5H4F+
91.0542	97	C7H7+
95.0491	524	C6H7O+
101.0385	19	C8H5+
104.0493	28	C7H6N+
105.0335	31	C7H5O+
105.0448	160	C6H5N2+
107.0292	38	C7H4F+
107.0492	569	C7H7O+
108.0568	33	C7H8O+
110.0401	18	C6H5FN+
118.065	13	C8H8N+
119.0494	57	C8H7O+
121.0448	504	C8H6F+
122.0402	69	C7H5FN+
124.0192	30	C6H3FNO+
128.0495	179	C9H6N+
129.0447	161	C8H5N2+
132.0442	20	C8H6NO+
133.0446	23	C9H6F+
134.0238	12	C7H4NO2+
134.04	101	C8H5FN+
134.0601	24	C8H8NO+
135.0482	83	C8H6FN+
138.035	143	C7H5FNO+
140.0497	22	C10H6N+
146.06	50	C9H8NO+
147.0477	20	C9H6FN+
148.0557	706	C9H7FN+
149.0401	122	C9H6FO+
149.0511	27	C8H6FN2+
149.0632	96	C9H8FN+
150.035	96	C8H5FNO+
151.03	46	C7H4FN2O+
151.0415	18	C11H5N+
152.0146	83	C7H3FNO2+
152.0505	28	C8H7FNO+
154.0649	54	C11H8N+
155.0601	30	C10H7N2+
156.0445	64	C10H6NO+
160.0553	21	C10H7FN+
161.0511	23	C9H6FN2+
161.0633	14	C10H8FN+
162.0347	40	C9H5FNO+
163.03	46	C8H4FN2O+
163.0429	23	C9H6FNO+
163.0664	35	C9H8FN2+
164.0503	59	C9H7FNO+
165.0454	15	C8H6FN2O+
166.0656	60	C9H9FNO+
167.0732	50	C12H9N+
168.0803	23	C12H10N+
171.055	51	C10H7N2O+
173.0507	38	C10H6FN2+
174.0568	13	C7H9FNO3+
175.0429	21	C10H6FNO+
176.0506	279	C10H7FNO+
177.0457	57	C9H6FN2O+
177.0587	55	C10H8FNO+
179.0252	113	C8H4FN2O2+
180.0808	15	C13H10N+
182.0599	11	C12H8NO+
184.04	23	C11H6NO2+
185.0638	29	C12H8FN+
186.0716	27	C12H9FN+
187.0658	13	C11H8FN2+
188.0505	44	C11H7FNO+
189.0458	66	C10H6FN2O+
190.0291	18	C13H4NO+
190.0525	46	C13H6N2+
191.0249	50	C9H4FN2O2+
191.0601	67	C13H7N2+
192.0681	34	C13H8N2+
193.0762	37	C13H9N2+
195.0922	51	C13H11N2+
198.0713	30	C13H9FN+
199.05	28	C11H7N2O2+
201.0452	30	C11H6FN2O+
201.0815	22	C12H10FN2+
203.0608	56	C14H7N2+
204.0454	70	C11H7FNO2+
205.0411	49	C10H6FN2O2+
205.076	29	C14H9N2+
209.0701	52	C13H9N2O+
212.0875	85	C14H11FN+
213.0454	28	C12H6FN2O+
214.0668	17	C13H9FNO+
215.0612	29	C12H8FN2O+
216.0464	15	C12H7FNO2+
219.0562	171	C11H8FN2O2+
221.0706	27	C14H9N2O+
223.0667	22	C14H8FN2+
230.0607	48	C13H9FNO2+
231.0567	77	C12H8FN2O2+
232.0413	43	C12H7FNO3+
239.0615	62	C14H8FN2O+
243.0561	27	C13H8FN2O2+
243.0925	24	C14H12FN2O+
251.0819	52	C15H11N2O2+
253.0769	47	C15H10FN2O+
257.072	66	C14H10FN2O2+
259.0511	366	C13H8FN2O3+
270.0558	35	C15H9FNO3+
273.0671	26	C14H10FN2O3+
279.0751	56	C16H11N2O3+
285.0661	53	C18H9N2O2+
287.082	89	C15H12FN2O3+
299.0827	162	C16H12FN2O3+
