Mass spectrum: Fenoxaprop-P-ethyl; LC-ESI-QFT; MS2; CE: 30%; R=15000; [M+H]+
Name: Fenoxaprop-P-ethyl
Name: Fenoxaprop-ethyl
Name: ethyl 2-[4-[(6-chloro-1,3-benzoxazol-2-yl)oxy]phenoxy]propanoate
Formula: C18H16ClNO5
Exact mass: 361.0717003
SMILES: CCOC(=O)C(C)OC1=CC=C(C=C1)OC2=NC3=C(O2)C=C(C=C3)Cl
InChI: InChI=1S/C18H16ClNO5/c1-3-22-17(21)11(2)23-13-5-7-14(8-6-13)24-18-20-15-9-4-12(19)10-16(15)25-18/h4-11H,3H2,1-2H3
Instrument: Exploris 240 Thermo Scientific
Instrument type: LC-ESI-QFT
Ms type: MS2
Ion mode: POSITIVE
Ionization: ESI
Fragmentation mode: HCD
Collision energy: 30 % (nominal)
Resolution: 15000
Column name: XBridge C18 3.5um, 2.1x50mm, Waters
Retention time: 13.081 min
Base peak: 362.079
Precursor m/z: 362.079
Precursor type: [M+H]+
m/z	relative intensity	assigned
119.049	33	C8H7O+
121.0647	44	C8H9O+
238.0497	28	C14H8NO3+
244.0522	60	C14H11ClNO+
260.0471	24	C14H11ClNO2+
270.0313	15	C18H6O3+
288.0421	999	C15H11ClNO3+
334.0475	30	C16H13ClNO5+
362.0791	291	C18H17ClNO5+
