Mass spectrum: Clofentezine; LC-ESI-QFT; MS2; CE: 45%; R=15000; [M+H]+
Name: Clofentezine
Name: 3,6-bis(2-chlorophenyl)-1,2,4,5-tetrazine
Formula: C14H8Cl2N4
Exact mass: 302.0126016
SMILES: C1=CC=C(C(=C1)C2=NN=C(N=N2)C3=CC=CC=C3Cl)Cl
InChI: InChI=1S/C14H8Cl2N4/c15-11-7-3-1-5-9(11)13-17-19-14(20-18-13)10-6-2-4-8-12(10)16/h1-8H
Instrument: Exploris 240 Thermo Scientific
Instrument type: LC-ESI-QFT
Ms type: MS2
Ion mode: POSITIVE
Ionization: ESI
Fragmentation mode: HCD
Collision energy: 45 % (nominal)
Resolution: 15000
Column name: XBridge C18 3.5um, 2.1x50mm, Waters
Retention time: 11.787 min
Base peak: 303.0196
Precursor m/z: 303.0199
Precursor type: [M+H]+
m/z	relative intensity	assigned
102.0337	14	C7H4N+
130.0398	125	C7H4N3+
138.0103	999	C7H5ClN+
