Mass spectrum: Tolterodine; LC-ESI-QFT; MS2; CE: 180%; R=15000; [M+H]+
Name: Tolterodine
Name: 2-[(1R)-3-[di(propan-2-yl)amino]-1-phenylpropyl]-4-methylphenol
Formula: C22H31NO
Exact mass: 325.2405646
SMILES: CC(C)N(CC[C@H](C1=CC=CC=C1)C1=C(O)C=CC(C)=C1)C(C)C
InChI: InChI=1S/C22H31NO/c1-16(2)23(17(3)4)14-13-20(19-9-7-6-8-10-19)21-15-18(5)11-12-22(21)24/h6-12,15-17,20,24H,13-14H2,1-5H3/t20-/m1/s1
Instrument: Exploris 240 Thermo Scientific
Instrument type: LC-ESI-QFT
Ms type: MS2
Ion mode: POSITIVE
Ionization: ESI
Fragmentation mode: HCD
Collision energy: 180 % (nominal)
Resolution: 15000
Column name: XBridge C18 3.5um, 2.1x50mm, Waters
Retention time: 6.330 min
Base peak: 326.2476
Precursor m/z: 326.2478
Precursor type: [M+H]+
m/z	relative intensity	assigned
51.0229	343	C4H3+
53.0387	106	C4H5+
65.0386	999	C5H5+
77.0387	197	C6H5+
78.0463	115	C6H6+
91.0542	779	C7H7+
95.0491	353	C6H7O+
103.0541	114	C8H7+
115.0544	416	C9H7+
128.0622	149	C10H8+
131.049	59	C9H7O+
152.062	532	C12H8+
153.0703	170	C12H9+
165.0702	101	C13H9+
169.0648	85	C12H9O+
202.0779	865	C16H10+
