Mass spectrum: Cloquintocet-mexyl; LC-ESI-QFT; MS2; CE: 120%; R=15000; [M+H]+
Name: Cloquintocet-mexyl
Name: heptan-2-yl 2-(5-chloroquinolin-8-yl)oxyacetate
Formula: C18H22ClNO3
Exact mass: 335.1288212
SMILES: CCCCCC(C)OC(=O)COC1=CC=C(Cl)C2=CC=CN=C12
InChI: InChI=1S/C18H22ClNO3/c1-3-4-5-7-13(2)23-17(21)12-22-16-10-9-15(19)14-8-6-11-20-18(14)16/h6,8-11,13H,3-5,7,12H2,1-2H3
Instrument: Q Exactive Plus
Instrument type: LC-ESI-QFT
Ms type: MS2
Ion mode: POSITIVE
Ionization: ESI
Fragmentation mode: HCD
Collision energy: 120 % (nominal)
Resolution: 15000
Column name: XBridge C18 3.5um, 2.1x50mm, Waters
Retention time: 13.722 min
Base peak: 336.1363
Precursor m/z: 336.1361
Precursor type: [M+H]+
Precursor intensity: 314351778.17
m/z	relative intensity	assigned
51.0231	10	C4H3+
57.0699	27	C4H9+
63.0228	15	C5H3+
75.0229	52	C6H3+
77.0022	22	C5HO+
89.0386	283	C7H5+
99.023	60	C8H3+
100.0182	52	C7H2N+
102.0465	26	C8H6+
115.0417	32	C8H5N+
116.0495	229	C8H6N+
124.0075	44	C7H5Cl+
126.0339	127	C9H4N+
127.0417	411	C9H5N+
128.0495	41	C9H6N+
129.0569	19	C9H7N+
134.0601	594	C8H8NO+
144.0445	119	C9H6NO+
150.0106	23	C8H5ClN+
151.0184	999	C8H6ClN+
162.0105	128	C9H5ClN+
163.0184	31	C9H6ClN+
178.0055	28	C9H5ClNO+
179.0131	73	C9H6ClNO+
180.0211	43	C9H7ClNO+
192.021	26	C10H7ClNO+
