Mass spectrum: Ganciclovir; LC-ESI-QFT; MS2; CE: 90%; R=15000; [M-H]-
Name: Ganciclovir
Name: CID 3454
Name: 2-azanyl-9-[1,3-bis(oxidanyl)propan-2-yloxymethyl]-1H-purin-6-one
Formula: C9H13N5O4
Exact mass: 255.0967539
SMILES: C1=NC2=C(N1COC(CO)CO)N=C(NC2=O)N
InChI: InChI=1S/C9H13N5O4/c10-9-12-7-6(8(17)13-9)11-3-14(7)4-18-5(1-15)2-16/h3,5,15-16H,1-2,4H2,(H3,10,12,13,17)
Instrument: Q Exactive
Instrument type: LC-ESI-QFT
Ms type: MS2
Ion mode: NEGATIVE
Ionization: ESI
Fragmentation mode: HCD
Collision energy: 90 % (nominal)
Resolution: 15000
Column name: XBridge C18 3.5um, 2.1x50mm, Waters
Retention time: 0.849 min
Base peak: 254.0896
Precursor m/z: 254.0895
Precursor type: [M-H]-
Precursor intensity: 119879646.76
m/z	relative intensity	assigned
59.0136	24	C2H3O2-
65.0144	584	C3HN2-
65.9984	130	C3NO-
66.0097	474	C2N3-
67.03	241	C3H3N2-
78.0098	66	C3N3-
82.0411	53	C3H4N3-
90.0097	69	C4N3-
92.0255	999	C4H2N3-
108.0203	306	C4H2N3O-
119.0362	435	C5H3N4-
120.0204	36	C5H2N3O-
126.0309	253	C4H4N3O2-
133.0155	851	C5HN4O-
150.0419	87	C5H4N5O-
