Mass spectrum: Methylecgonine; LC-ESI-QFT; MS2; CE: 60%; R=17500; [M+H]+
Name: Methylecgonine
Name: methyl 3-hydroxy-8-methyl-8-azabicyclo[3.2.1]octane-2-carboxylate
Formula: C10H17NO3
Exact mass: 199.1208434
SMILES: CN1C2CCC1C(C(C2)O)C(=O)OC
InChI: InChI=1S/C10H17NO3/c1-11-6-3-4-7(11)9(8(12)5-6)10(13)14-2/h6-9,12H,3-5H2,1-2H3
Instrument: Exploris 240 Orbitrap Thermo Scientific
Instrument type: LC-ESI-QFT
Ms type: MS2
Ion mode: POSITIVE
Ionization: ESI
Fragmentation mode: HCD
Collision energy: 60 % (nominal)
Resolution: 17500
Column name: XBridge C18 3.5um, 2.1x50mm, Waters
Retention time: 0.884 min
Base peak: 200.128
Precursor m/z: 200.1281
Precursor type: [M+H]+
m/z	relative intensity	assigned
70.0652	6	C4H8N+
79.0542	7	C6H7+
82.0651	613	C5H8N+
83.0729	37	C5H9N+
84.0806	23	C5H10N+
91.0541	35	C7H7+
93.0334	35	C6H5O+
93.0698	23	C7H9+
94.0648	12	C6H8N+
96.0807	39	C6H10N+
97.0647	8	C6H9O+
100.0758	55	C5H10NO+
108.0808	57	C7H10N+
118.0412	8	C8H6O+
119.0492	58	C8H7O+
122.0962	47	C8H12N+
124.0754	10	C7H10NO+
124.1119	19	C8H14N+
125.0598	9	C7H9O2+
150.0913	83	C9H12NO+
154.0864	38	C8H12NO2+
156.1019	17	C8H14NO2+
182.1175	999	C10H16NO2+
200.1281	294	C10H18NO3+
