Mass spectrum: BifenoxH; LC-ESI-QFT; MS2; CE: 120%; R=15000; [M+H]+
Name: BifenoxH
Name: Bifenox
Name: methyl 5-(2,4-dichlorophenoxy)-2-nitrobenzoate
Formula: C14H9Cl2NO5
Exact mass: 340.9857777
SMILES: COC(=O)C1=C(C=CC(=C1)OC2=C(C=C(C=C2)Cl)Cl)[N+](=O)[O-]
InChI: InChI=1S/C14H9Cl2NO5/c1-21-14(18)10-7-9(3-4-12(10)17(19)20)22-13-5-2-8(15)6-11(13)16/h2-7H,1H3
Instrument: Q Exactive Plus
Instrument type: LC-ESI-QFT
Ms type: MS2
Ion mode: POSITIVE
Ionization: ESI
Fragmentation mode: HCD
Collision energy: 120 % (nominal)
Resolution: 15000
Column name: XBridge C18 3.5um, 2.1x50mm, Waters
Retention time: 12.553 min
Base peak: 164.9845
Precursor m/z: 341.9931
Precursor type: [M+H]+
Precursor intensity: 10833477.93
m/z	relative intensity	assigned
50.0151	71	C4H2+
51.0228	24	C4H3+
52.0181	33	C3H2N+
53.0022	82	C3HO+
62.0151	35	C5H2+
63.0229	101	C5H3+
65.0385	143	C5H5+
72.9839	404	C3H2Cl+
74.015	999	C6H2+
75.0104	49	C5HN+
75.0228	245	C6H3+
76.0181	193	C5H2N+
82.9449	150	CHCl2+
84.9839	29	C4H2Cl+
86.015	21	C7H2+
86.9632	39	C3ClO+
87.0227	33	C7H3+
89.0386	23	C7H5+
96.9839	159	C5H2Cl+
98.9993	12	C5H4Cl+
106.9448	80	C3HCl2+
108.9839	424	C6H2Cl+
112.0308	11	C9H4+
113.0385	204	C9H5+
122.9996	23	C7H4Cl+
125.9868	18	C6H3ClO+
132.9606	157	C5H3Cl2+
137.0386	67	C11H5+
138.0465	72	C11H6+
140.0494	112	C10H6N+
146.9996	26	C9H4Cl+
170.036	22	C11H6O2+
173.0151	73	C11H6Cl+
