Mass spectrum: Chloridazon; LC-ESI-QFT; MS2; CE: 120%; R=15000; [M+H]+
Name: Chloridazon
Name: 5-amino-4-chloro-2-phenylpyridazin-3-one
Formula: C10H8ClN3O
Exact mass: 221.0355896
SMILES: NC1=C(Cl)C(=O)N(N=C1)C1=CC=CC=C1
InChI: InChI=1S/C10H8ClN3O/c11-9-8(12)6-13-14(10(9)15)7-4-2-1-3-5-7/h1-6H,12H2
Instrument: Q Exactive Plus
Instrument type: LC-ESI-QFT
Ms type: MS2
Ion mode: POSITIVE
Ionization: ESI
Fragmentation mode: HCD
Collision energy: 120 % (nominal)
Resolution: 15000
Column name: XBridge C18 3.5um, 2.1x50mm, Waters
Retention time: 4.559 min
Base peak: 222.043
Precursor m/z: 222.0429
Precursor type: [M+H]+
Precursor intensity: 516363769.41
m/z	relative intensity	assigned
50.0151	107	C4H2+
51.023	353	C4H3+
52.0182	41	C3H2N+
53.0261	11	C3H3N+
53.0386	174	C4H5+
54.0339	16	C3H4N+
55.0179	10	C3H3O+
55.0291	89	C2H3N2+
62.9633	12	CClO+
63.9948	53	CH3ClN+
65.0386	999	C5H5+
66.0213	216	C3H2N2+
66.0464	33	C5H6+
67.0291	12	C3H3N2+
73.9792	62	C2HClN+
74.9869	19	C2H2ClN+
75.9948	27	C2H3ClN+
77.0386	202	C6H5+
81.0336	14	C5H5O+
87.9949	188	C3H3ClN+
89.0384	16	C7H5+
92.0495	151	C6H6N+
93.0573	107	C6H7N+
94.0653	27	C6H8N+
95.0492	555	C6H7O+
100.9902	111	C3H2ClN2+
101.9741	11	C3HClNO+
103.0542	30	C8H7+
104.0495	59	C7H6N+
105.0448	157	C6H5N2+
114.0337	10	C8H4N+
116.9977	29	C4H4ClNO+
122.9995	28	C7H4Cl+
128.9852	11	C4H2ClN2O+
130.0652	28	C9H8N+
131.0605	11	C8H7N2+
146.0118	39	C4H5ClN3O+
