Mass spectrum: Ezetimibe; LC-ESI-QFT; MS2; CE: 75%; R=15000; [M-H]-
Name: Ezetimibe
Name: 1-(4-Fluorophenyl)-3-(3-(4-fluorophenyl)-3-hydroxypropyl)-4-(4-hydroxyphenyl)azetidin-2-one
Name: 1-(4-fluorophenyl)-3-[3-(4-fluorophenyl)-3-hydroxypropyl]-4-(4-hydroxyphenyl)azetidin-2-one
Formula: C24H21F2NO3
Exact mass: 409.14895
SMILES: C1=CC(=CC=C1C2C(C(=O)N2C3=CC=C(C=C3)F)CCC(C4=CC=C(C=C4)F)O)O
InChI: InChI=1S/C24H21F2NO3/c25-17-5-1-15(2-6-17)22(29)14-13-21-23(16-3-11-20(28)12-4-16)27(24(21)30)19-9-7-18(26)8-10-19/h1-12,21-23,28-29H,13-14H2
Instrument: Exploris 240 Thermo Scientific
Instrument type: LC-ESI-QFT
Ms type: MS2
Ion mode: NEGATIVE
Ionization: ESI
Fragmentation mode: HCD
Collision energy: 75 % (nominal)
Resolution: 15000
Column name: XBridge C18 3.5um, 2.1x50mm, Waters
Retention time: 9.765 min
Base peak: 408.1416
Precursor m/z: 408.1417
Precursor type: [M-H]-
m/z	relative intensity	assigned
93.0344	179	C6H5O-
95.0301	239	C6H4F-
106.0423	50	C7H6O-
110.041	124	C6H5FN-
119.0502	999	C8H7O-
121.0456	53	C8H6F-
130.0425	64	C9H6O-
131.0502	219	C9H7O-
132.058	768	C9H8O-
137.0405	70	C8H6FO-
145.0658	85	C10H9O-
175.0769	50	C11H11O2-
