Mass spectrum: Febuxostat; LC-ESI-QFT; MS2; CE: 150%; R=15000; [M+H]+
Name: Febuxostat
Name: 2-[3-cyano-4-(2-methylpropoxy)phenyl]-4-methyl-1,3-thiazole-5-carboxylic acid
Formula: C16H16N2O3S
Exact mass: 316.0881634
SMILES: CC1=C(SC(=N1)C2=CC(=C(C=C2)OCC(C)C)C#N)C(=O)O
InChI: InChI=1S/C16H16N2O3S/c1-9(2)8-21-13-5-4-11(6-12(13)7-17)15-18-10(3)14(22-15)16(19)20/h4-6,9H,8H2,1-3H3,(H,19,20)
Instrument: Q Exactive Plus
Instrument type: LC-ESI-QFT
Ms type: MS2
Ion mode: POSITIVE
Ionization: ESI
Fragmentation mode: HCD
Collision energy: 150 % (nominal)
Resolution: 15000
Column name: XBridge C18 3.5um, 2.1x50mm, Waters
Retention time: 11.644 min
Base peak: 317.0954
Precursor m/z: 317.0954
Precursor type: [M+H]+
Precursor intensity: 288937567.42
m/z	relative intensity	assigned
50.0151	100	C4H2+
51.0229	148	C4H3+
52.0181	38	C3H2N+
53.0385	23	C4H5+
58.995	40	C2H3S+
59.9664	348	COS+
62.0152	71	C5H2+
63.0229	999	C5H3+
65.0386	66	C5H5+
68.9793	81	C3HS+
70.9949	664	C3H3S+
72.0029	78	C3H4S+
75.0229	115	C6H3+
76.0182	52	C5H2N+
76.0307	115	C6H4+
81.0335	46	C5H5O+
89.0384	92	C7H5+
90.0338	812	C6H4N+
91.054	88	C7H7+
94.995	29	C5H3S+
95.0491	88	C6H7O+
100.018	115	C7H2N+
102.0463	24	C8H6+
103.0417	33	C7H5N+
105.0447	30	C6H5N2+
116.0493	22	C8H6N+
117.0574	29	C8H7N+
118.0286	90	C7H4NO+
145.0392	114	C8H5N2O+
160.0215	49	C9H6NS+
162.0007	23	C8H4NOS+
