Mass spectrum: Neopentyl-Glycol-Diglycidyl-Ether; LC-ESI-QFT; MS2; CE: 20%; R=15000; [M+H]+
Name: Neopentyl-Glycol-Diglycidyl-Ether
Name: 2-[[2,2-dimethyl-3-(oxiran-2-ylmethoxy)propoxy]methyl]oxirane
Formula: C11H20O4
Exact mass: 216.1361591
SMILES: CC(C)(COCC1CO1)COCC2CO2
InChI: InChI=1S/C11H20O4/c1-11(2,7-12-3-9-5-14-9)8-13-4-10-6-15-10/h9-10H,3-8H2,1-2H3
Instrument: Exploris 240 Thermo Scientific
Instrument type: LC-ESI-QFT
Ms type: MS2
Ion mode: POSITIVE
Ionization: ESI
Fragmentation mode: HCD
Collision energy: 20 % (nominal)
Resolution: 15000
Column name: XBridge C18 3.5um, 2.1x50mm, Waters
Retention time: 5.479 min
Base peak: 234.1696
Precursor m/z: 217.1434
Precursor type: [M+H]+
m/z	relative intensity	assigned
57.0335	973	C3H5O+
57.0699	169	C4H9+
59.0491	477	C3H7O+
69.0698	888	C5H9+
71.0492	71	C4H7O+
71.0855	290	C5H11+
73.0284	222	C3H5O2+
73.0647	106	C4H9O+
75.044	999	C3H7O2+
77.0594	83	C3H9O2+
85.0648	138	C5H9O+
87.044	345	C4H7O2+
87.0804	184	C5H11O+
89.0596	137	C4H9O2+
91.0392	64	C3H7O3+
93.0546	560	C3H9O3+
95.0855	23	C7H11+
101.0599	131	C5H9O2+
103.0391	40	C4H7O3+
113.0597	71	C6H9O2+
115.0753	263	C6H11O2+
125.0961	52	C8H13O+
129.0547	185	C6H9O3+
131.0703	287	C6H11O3+
141.091	72	C8H13O2+
143.1067	143	C8H15O2+
145.086	104	C7H13O3+
145.1221	46	C8H17O2+
159.1019	24	C8H15O3+
161.1172	599	C8H17O3+
217.1434	900	C11H21O4+
