Mass spectrum: Lamivudine; LC-ESI-QFT; MS2; CE: 75%; R=17500; [M+H]+
Name: Lamivudine
Name: 4-amino-1-(2-(hydroxymethyl)-1,3-oxathiolan-5-yl)pyrimidin-2(1H)-one
Name: 4-amino-1-[2-(hydroxymethyl)-1,3-oxathiolan-5-yl]pyrimidin-2-one
Formula: C8H11N3O3S
Exact mass: 229.0521122
SMILES: C1C(OC(S1)CO)N2C=CC(=NC2=O)N
InChI: InChI=1S/C8H11N3O3S/c9-5-1-2-11(8(13)10-5)6-4-15-7(3-12)14-6/h1-2,6-7,12H,3-4H2,(H2,9,10,13)
Instrument: Exploris 240 Orbitrap Thermo Scientific
Instrument type: LC-ESI-QFT
Ms type: MS2
Ion mode: POSITIVE
Ionization: ESI
Fragmentation mode: HCD
Collision energy: 75 % (nominal)
Resolution: 17500
Column name: XBridge C18 3.5um, 2.1x50mm, Waters
Retention time: 1.427 min
Base peak: 230.0592
Precursor m/z: 230.0594
Precursor type: [M+H]+
m/z	relative intensity	assigned
61.0105	11	C2H5S+
67.029	2	C3H3N2+
68.0132	4	C3H2NO+
69.0447	48	C3H5N2+
73.0107	37	C3H5S+
74.9896	4	C2H3OS+
94.04	27	C4H4N3+
95.024	121	C4H3N2O+
101.0054	10	C4H5OS+
112.0505	999	C4H6N3O+
