Mass spectrum: 13-cis Retinoic acid; LC-ESI-QFT; MS2; CE: 45%; R=15000; [M+H]+
Name: 13-cis Retinoic acid
Name: 3,7-Dimethyl-9-(2,6,6-trimethylcyclohex-1-en-1-yl)nona-2,4,6,8-tetraenoic acid
Name: 3,7-dimethyl-9-(2,6,6-trimethylcyclohexen-1-yl)nona-2,4,6,8-tetraenoic acid
Formula: C20H28O2
Exact mass: 300.2089301
SMILES: CC1=C(C(CCC1)(C)C)C=CC(=CC=CC(=CC(=O)O)C)C
InChI: InChI=1S/C20H28O2/c1-15(8-6-9-16(2)14-19(21)22)11-12-18-17(3)10-7-13-20(18,4)5/h6,8-9,11-12,14H,7,10,13H2,1-5H3,(H,21,22)
Instrument: Exploris 240 Thermo Scientific
Instrument type: LC-ESI-QFT
Ms type: MS2
Ion mode: POSITIVE
Ionization: ESI
Fragmentation mode: HCD
Collision energy: 45 % (nominal)
Resolution: 15000
Column name: XBridge C18 3.5um, 2.1x50mm, Waters
Retention time: 16.524 min
Base peak: 301.2161
Precursor m/z: 301.2162
Precursor type: [M+H]+
m/z	relative intensity	assigned
55.0542	114	C4H7+
57.0698	77	C4H9+
67.0543	110	C5H7+
69.0699	272	C5H9+
79.0542	32	C6H7+
81.0699	424	C6H9+
83.0855	87	C6H11+
91.0544	21	C7H7+
93.0699	126	C7H9+
95.0856	250	C7H11+
105.0699	194	C8H9+
107.0855	198	C8H11+
109.0648	48	C7H9O+
109.1012	293	C8H13+
111.0442	33	C6H7O2+
119.0855	264	C9H11+
121.0646	76	C8H9O+
121.1015	127	C9H13+
123.1168	999	C9H15+
131.0855	199	C10H11+
133.1011	261	C10H13+
135.1172	56	C10H15+
143.086	69	C11H11+
144.0931	21	C11H12+
145.1011	376	C11H13+
147.1169	140	C11H15+
157.1012	132	C12H13+
159.0809	121	C11H11O+
159.1167	656	C12H15+
161.096	432	C11H13O+
161.1323	235	C12H17+
171.0802	39	C12H11O+
171.1166	139	C13H15+
172.0884	25	C12H12O+
173.1325	145	C13H17+
175.1117	51	C12H15O+
175.1482	140	C13H19+
176.1558	23	C13H20+
177.0911	94	C11H13O2+
185.0961	112	C13H13O+
185.1318	116	C14H17+
187.1117	188	C13H15O+
199.1123	107	C14H15O+
199.1485	143	C15H19+
201.1635	278	C15H21+
205.122	105	C13H17O2+
213.1275	55	C15H17O+
213.1638	49	C16H21+
231.1373	20	C15H19O2+
241.1593	46	C17H21O+
