Mass spectrum: Suberoylanilide hydroxamic acid; LC-ESI-QFT; MS2; CE: 30%; R=15000; [M+H]+
Name: Suberoylanilide hydroxamic acid
Name: Vorinostat
Name: N`-hydroxy-N-phenyloctanediamide
Formula: C14H20N2O3
Exact mass: 264.1473925
SMILES: C1=CC=C(C=C1)NC(=O)CCCCCCC(=O)NO
InChI: InChI=1S/C14H20N2O3/c17-13(15-12-8-4-3-5-9-12)10-6-1-2-7-11-14(18)16-19/h3-5,8-9,19H,1-2,6-7,10-11H2,(H,15,17)(H,16,18)
Instrument: Exploris 240 Thermo Scientific
Instrument type: LC-ESI-QFT
Ms type: MS2
Ion mode: POSITIVE
Ionization: ESI
Fragmentation mode: HCD
Collision energy: 30 % (nominal)
Resolution: 15000
Column name: XBridge C18 3.5um, 2.1x50mm, Waters
Retention time: 4.916 min
Base peak: 265.1544
Precursor m/z: 265.1547
Precursor type: [M+H]+
m/z	relative intensity	assigned
55.0542	36	C4H7+
69.0698	25	C5H9+
83.0855	83	C6H11+
93.0697	16	C7H9+
94.0651	211	C6H8N+
111.0801	31	C7H11O+
120.0445	11	C7H6NO+
126.0913	14	C7H12NO+
139.0753	204	C8H11O2+
144.1017	41	C7H14NO2+
154.0861	51	C8H12NO2+
157.0857	31	C8H13O3+
172.0966	464	C8H14NO3+
204.138	29	C13H18NO+
232.133	999	C14H18NO2+
265.1545	35	C14H21N2O3+
