Mass spectrum: Desosaminylazithromycin; LC-ESI-QFT; MS2; CE: 30%; R=17500; [M+H]+
Name: Desosaminylazithromycin
Name: 11-[4-(dimethylamino)-3-hydroxy-6-methyloxan-2-yl]oxy-2-ethyl-3,4,10,13-tetrahydroxy-3,5,6,8,10,12,14-heptamethyl-1-oxa-6-azacyclopentadecan-15-one
Formula: C30H58N2O9
Exact mass: 590.4142314
SMILES: CCC1C(C(C(N(CC(CC(C(C(C(C(C(=O)O1)C)O)C)OC2C(C(CC(O2)C)N(C)C)O)(C)O)C)C)C)O)(C)O
InChI: InChI=1S/C30H58N2O9/c1-12-22-30(8,38)25(35)20(6)32(11)15-16(2)14-29(7,37)26(18(4)23(33)19(5)27(36)40-22)41-28-24(34)21(31(9)10)13-17(3)39-28/h16-26,28,33-35,37-38H,12-15H2,1-11H3
Instrument: Exploris 240 Orbitrap Thermo Scientific
Instrument type: LC-ESI-QFT
Ms type: MS2
Ion mode: POSITIVE
Ionization: ESI
Fragmentation mode: HCD
Collision energy: 30 % (nominal)
Resolution: 17500
Column name: XBridge C18 3.5um, 2.1x50mm, Waters
Retention time: 3.344 min
Base peak: 296.2142
Precursor m/z: 591.4215
Precursor type: [M+H]+
m/z	relative intensity	assigned
72.0808	34	C4H10N+
98.0962	36	C6H12N+
113.0593	23	C6H9O2+
116.0706	52	C5H10NO2+
116.107	475	C6H14NO+
158.1175	764	C8H16NO2+
186.1492	49	C10H20NO2+
416.3028	34	C25H40N2O3+
434.311	131	C22H44NO7+
573.4114	166	C30H57N2O8+
591.4217	999	C30H59N2O9+
