Mass spectrum: 5-Bromo-N-(4,5-dihydro-1H-imidazol-2-yl)-6-Quinoxalinamine; LC-ESI-QFT; MS2; CE: 15%; R=15000; [M+H]+
Name: 5-Bromo-N-(4,5-dihydro-1H-imidazol-2-yl)-6-Quinoxalinamine
Name: Brimonidine
Name: 5-bromo-N-(4,5-dihydro-1H-imidazol-2-yl)quinoxalin-6-amine
Formula: C11H10BrN5
Exact mass: 291.0119574
SMILES: C1CN=C(N1)NC2=C(C3=NC=CN=C3C=C2)Br
InChI: InChI=1S/C11H10BrN5/c12-9-7(17-11-15-5-6-16-11)1-2-8-10(9)14-4-3-13-8/h1-4H,5-6H2,(H2,15,16,17)
Instrument: Exploris 240 Thermo Scientific
Instrument type: LC-ESI-QFT
Ms type: MS2
Ion mode: POSITIVE
Ionization: ESI
Fragmentation mode: HCD
Collision energy: 15 % (nominal)
Resolution: 15000
Column name: XBridge C18 3.5um, 2.1x50mm, Waters
Retention time: 2.032 min
Base peak: 292.019
Precursor m/z: 292.0192
Precursor type: [M+H]+
m/z	relative intensity	assigned
292.019	999	C11H11BrN5+
