Mass spectrum: Butralin; LC-ESI-QFT; MS2; CE: 90%; R=15000; [M+H]+
Name: Butralin
Name: N-butan-2-yl-4-tert-butyl-2,6-dinitroaniline
Formula: C14H21N3O4
Exact mass: 295.1532062
SMILES: CCC(C)NC1=C(C=C(C=C1[N+](=O)[O-])C(C)(C)C)[N+](=O)[O-]
InChI: InChI=1S/C14H21N3O4/c1-6-9(2)15-13-11(16(18)19)7-10(14(3,4)5)8-12(13)17(20)21/h7-9,15H,6H2,1-5H3
Instrument: Exploris 240 Thermo Scientific
Instrument type: LC-ESI-QFT
Ms type: MS2
Ion mode: POSITIVE
Ionization: ESI
Fragmentation mode: HCD
Collision energy: 90 % (nominal)
Resolution: 15000
Column name: XBridge C18 3.5um, 2.1x50mm, Waters
Retention time: 14.802 min
Base peak: 296.1602
Precursor m/z: 296.1605
Precursor type: [M+H]+
m/z	relative intensity	assigned
53.0386	65	C4H5+
57.0699	999	C4H9+
59.0492	106	C3H7O+
65.0388	107	C5H5+
67.0544	76	C5H7+
79.0542	307	C6H7+
80.0497	90	C5H6N+
81.0701	93	C6H9+
90.034	55	C6H4N+
91.0419	98	C6H5N+
91.054	324	C7H7+
92.0496	119	C6H6N+
93.0698	61	C7H9+
94.0651	98	C6H8N+
95.0491	163	C6H7O+
104.0494	159	C7H6N+
105.0698	186	C8H9+
106.0652	140	C7H8N+
117.0576	173	C8H7N+
118.0653	148	C8H8N+
119.0604	149	C7H7N2+
130.0651	282	C9H8N+
131.0732	133	C9H9N+
132.0806	832	C9H10N+
134.0601	74	C8H8NO+
142.0525	46	C9H6N2+
143.0607	91	C9H7N2+
144.0681	61	C9H8N2+
144.081	57	C10H10N+
159.092	84	C10H11N2+
161.0708	72	C9H9N2O+
178.0737	799	C9H10N2O2+
208.0714	304	C9H10N3O3+
