Mass spectrum: Atrazine; LC-ESI-QFT; MS2; CE: 150%; R=15000; [M+H]+
Name: Atrazine
Name: 6-chloro-4-N-ethyl-2-N-propan-2-yl-1,3,5-triazine-2,4-diamine
Formula: C8H14ClN5
Exact mass: 215.0937731
SMILES: CCNC1=NC(NC(C)C)=NC(Cl)=N1
InChI: InChI=1S/C8H14ClN5/c1-4-10-7-12-6(9)13-8(14-7)11-5(2)3/h5H,4H2,1-3H3,(H2,10,11,12,13,14)
Instrument: Q Exactive Plus
Instrument type: LC-ESI-QFT
Ms type: MS2
Ion mode: POSITIVE
Ionization: ESI
Fragmentation mode: HCD
Collision energy: 150 % (nominal)
Resolution: 15000
Column name: XBridge C18 3.5um, 2.1x50mm, Waters
Retention time: 7.307 min
Base peak: 216.1013
Precursor m/z: 216.101
Precursor type: [M+H]+
Precursor intensity: 1580307400.38
m/z	relative intensity	assigned
61.9793	659	CHClN+
68.0244	999	C2H2N3+
79.0058	95	CH4ClN2+
104.0011	61	C2H3ClN3+
