Mass spectrum: Tepraloxydim; LC-ESI-QFT; MS2; CE: 180%; R=15000; [M+H]+
Name: Tepraloxydim
Name: 2-Cyclohexen-1-one, 2-(1-((((2E)-3-chloro-2-propenyl)oxy)imino)propyl)-3-hydroxy-5-(tetrahydro-2H-pyran-4-yl)-
Name: 2-[N-[(E)-3-chloroprop-2-enoxy]-C-ethylcarbonimidoyl]-3-hydroxy-5-(oxan-4-yl)cyclohex-2-en-1-one
Formula: C17H24ClNO4
Exact mass: 341.1393859
SMILES: CCC(=C1C(=O)CC(CC1=O)C2CCOCC2)NOCC=CCl
InChI: InChI=1S/C17H24ClNO4/c1-2-14(19-23-7-3-6-18)17-15(20)10-13(11-16(17)21)12-4-8-22-9-5-12/h3,6,12-13,19H,2,4-5,7-11H2,1H3
Instrument: Q Exactive Plus
Instrument type: LC-ESI-QFT
Ms type: MS2
Ion mode: POSITIVE
Ionization: ESI
Fragmentation mode: HCD
Collision energy: 180 % (nominal)
Resolution: 15000
Column name: XBridge C18 3.5um, 2.1x50mm, Waters
Retention time: 9.984 min
Base peak: 342.147
Precursor m/z: 342.1467
Precursor type: [M+H]+
Precursor intensity: 337553619.09
m/z	relative intensity	assigned
50.0152	376	C4H2+
51.023	999	C4H3+
52.0308	46	C4H4+
53.0023	120	C3HO+
53.0386	445	C4H5+
54.0338	160	C3H4N+
55.0543	60	C4H7+
56.0495	154	C3H6N+
63.0229	122	C5H3+
65.0386	706	C5H5+
66.0339	181	C4H4N+
66.0465	96	C5H6+
67.0417	163	C4H5N+
67.0543	92	C5H7+
68.0494	162	C4H6N+
74.9995	137	C3H4Cl+
75.0231	37	C6H3+
77.0385	272	C6H5+
78.0465	104	C6H6+
79.0541	120	C6H7+
80.0495	301	C5H6N+
81.0574	34	C5H7N+
89.0386	101	C7H5+
91.0543	373	C7H7+
92.0495	44	C6H6N+
93.0574	106	C6H7N+
95.0491	863	C6H7O+
96.0443	134	C5H6NO+
103.0542	76	C8H7+
115.0544	165	C9H7+
130.0652	32	C9H8N+
