Mass spectrum: Apraclonidine; LC-ESI-QFT; MS2; CE: 15%; R=15000; [M+H]+
Name: Apraclonidine
Name: 2,6-bis(chloranyl)-N1-(4,5-dihydro-1H-imidazol-2-yl)benzene-1,4-diamine
Formula: C9H10Cl2N4
Exact mass: 244.0282517
SMILES: C1CN=C(N1)NC2=C(C=C(C=C2Cl)N)Cl
InChI: InChI=1S/C9H10Cl2N4/c10-6-3-5(12)4-7(11)8(6)15-9-13-1-2-14-9/h3-4H,1-2,12H2,(H2,13,14,15)
Instrument: Exploris 240 Thermo Scientific
Instrument type: LC-ESI-QFT
Ms type: MS2
Ion mode: POSITIVE
Ionization: ESI
Fragmentation mode: HCD
Collision energy: 15 % (nominal)
Resolution: 15000
Column name: XBridge C18 3.5um, 2.1x50mm, Waters
Retention time: 1.701 min
Base peak: 245.0352
Precursor m/z: 245.0355
Precursor type: [M+H]+
m/z	relative intensity	assigned
245.0352	999	C9H11Cl2N4+
