Mass spectrum: Prallethrin; LC-ESI-QFT; MS2; CE: 15%; R=15000; [M+H]+
Name: Prallethrin
Name: (2-methyl-4-oxo-3-prop-2-ynylcyclopent-2-en-1-yl) 2,2-dimethyl-3-(2-methylprop-1-enyl)cyclopropane-1-carboxylate
Formula: C19H24O3
Exact mass: 300.1725446
SMILES: CC1=C(C(=O)CC1OC(=O)C2C(C2(C)C)C=C(C)C)CC#C
InChI: InChI=1S/C19H24O3/c1-7-8-13-12(4)16(10-15(13)20)22-18(21)17-14(9-11(2)3)19(17,5)6/h1,9,14,16-17H,8,10H2,2-6H3
Instrument: Exploris 240 Thermo Scientific
Instrument type: LC-ESI-QFT
Ms type: MS2
Ion mode: POSITIVE
Ionization: ESI
Fragmentation mode: HCD
Collision energy: 15 % (nominal)
Resolution: 15000
Column name: XBridge C18 3.5um, 2.1x50mm, Waters
Retention time: 12.520 min
Base peak: 301.1796
Precursor m/z: 301.1798
Precursor type: [M+H]+
m/z	relative intensity	assigned
83.0855	13	C6H11+
105.0698	153	C8H9+
113.0596	16	C6H9O2+
121.1009	23	C9H13+
123.1167	474	C9H15+
133.0646	999	C9H9O+
151.1115	538	C10H15O+
169.122	721	C10H17O2+
