Mass spectrum: Theophylline; LC-ESI-QFT; MS2; CE: 75%; R=17500; [M+H]+
Name: Theophylline
Name: 1,3-dimethyl-7H-purine-2,6-dione
Formula: C7H8N4O2
Exact mass: 180.0647255
SMILES: CN1C2=C(C(=O)N(C1=O)C)NC=N2
InChI: InChI=1S/C7H8N4O2/c1-10-5-4(8-3-9-5)6(12)11(2)7(10)13/h3H,1-2H3,(H,8,9)
Instrument: Exploris 240 Orbitrap Thermo Scientific
Instrument type: LC-ESI-QFT
Ms type: MS2
Ion mode: POSITIVE
Ionization: ESI
Fragmentation mode: HCD
Collision energy: 75 % (nominal)
Resolution: 17500
Column name: XBridge C18 3.5um, 2.1x50mm, Waters
Retention time: 2.618 min
Base peak: 181.0718
Precursor m/z: 181.072
Precursor type: [M+H]+
m/z	relative intensity	assigned
42.0338	115	C2H4N+
69.0447	233	C3H5N2+
83.0239	19	C3H3N2O+
95.0241	5	C4H3N2O+
96.0556	341	C4H6N3+
97.0393	13	C4H5N2O+
109.0268	11	C4H3N3O+
124.0504	999	C5H6N3O+
137.0827	5	C6H9N4+
142.061	14	C5H8N3O2+
181.0718	101	C7H9N4O2+
