Mass spectrum: Diflubenzuron; LC-ESI-QFT; MS2; CE: 150%; R=15000; [M+H]+
Name: Diflubenzuron
Name: N-[(4-chlorophenyl)carbamoyl]-2,6-difluorobenzamide
Formula: C14H9ClF2N2O2
Exact mass: 310.0320616
SMILES: FC1=CC=CC(F)=C1C(=O)NC(=O)NC1=CC=C(Cl)C=C1
InChI: InChI=1S/C14H9ClF2N2O2/c15-8-4-6-9(7-5-8)18-14(21)19-13(20)12-10(16)2-1-3-11(12)17/h1-7H,(H2,18,19,20,21)
Instrument: Q Exactive Plus
Instrument type: LC-ESI-QFT
Ms type: MS2
Ion mode: POSITIVE
Ionization: ESI
Fragmentation mode: HCD
Collision energy: 150 % (nominal)
Resolution: 15000
Column name: XBridge C18 3.5um, 2.1x50mm, Waters
Retention time: 11.176 min
Base peak: 311.0397
Precursor m/z: 311.0393
Precursor type: [M+H]+
Precursor intensity: 135662558.53
m/z	relative intensity	assigned
57.0136	16	C3H2F+
61.0073	26	C5H+
62.0151	117	C5H2+
63.0229	999	C5H3+
72.984	18	C3H2Cl+
74.0151	76	C6H2+
75.0229	38	C6H3+
93.0136	128	C6H2F+
98.9998	27	F2HN2O2+
99.0103	36	C7HN+
100.0182	119	C7H2N+
111.0242	26	C6H4FO+
113.0197	80	C6H3F2+
131.0305	31	C6H5F2O+
141.0257	132	C6H3F2N2+
