Mass spectrum: Oxazepam; LC-ESI-QFT; MS2; CE: 180%; R=15000; [M+H]+
Name: Oxazepam
Name: 7-chloro-3-hydroxy-5-phenyl-1,3-dihydro-1,4-benzodiazepin-2-one
Formula: C15H11ClN2O2
Exact mass: 286.0509053
SMILES: OC1N=C(C2=CC=CC=C2)C2=CC(Cl)=CC=C2NC1=O
InChI: InChI=1S/C15H11ClN2O2/c16-10-6-7-12-11(8-10)13(9-4-2-1-3-5-9)18-15(20)14(19)17-12/h1-8,15,20H,(H,17,19)
Instrument: Q Exactive Plus
Instrument type: LC-ESI-QFT
Ms type: MS2
Ion mode: POSITIVE
Ionization: ESI
Fragmentation mode: HCD
Collision energy: 180 % (nominal)
Resolution: 15000
Column name: XBridge C18 3.5um, 2.1x50mm, Waters
Retention time: 7.837 min
Base peak: 287.0581
Precursor m/z: 287.0582
Precursor type: [M+H]+
Precursor intensity: 396230952
m/z	relative intensity	assigned
50.0151	497	C4H2+
51.0229	999	C4H3+
52.0181	30	C3H2N+
53.0021	24	C3HO+
53.0386	161	C4H5+
61.9792	41	CHClN+
63.0229	255	C5H3+
64.0181	51	C4H2N+
64.0307	40	C5H4+
65.0022	29	C4HO+
65.0385	167	C5H5+
66.0464	219	C5H6+
72.9839	217	C3H2Cl+
74.015	341	C6H2+
75.0229	432	C6H3+
76.0181	24	C5H2N+
76.0306	35	C6H4+
77.0385	276	C6H5+
81.0333	19	C5H5O+
84.9839	62	C4H2Cl+
90.0338	71	C6H4N+
91.0417	174	C6H5N+
92.0494	55	C6H6N+
93.0573	116	C6H7N+
95.0491	509	C6H7O+
99.0103	306	C7HN+
100.0181	519	C7H2N+
104.0492	32	C7H6N+
105.0447	145	C6H5N2+
108.9839	24	C6H2Cl+
115.0542	38	C9H7+
118.0288	44	C7H4NO+
118.0523	33	C7H6N2+
126.0463	67	C10H6+
139.0544	87	C11H7+
140.0495	68	C10H6N+
150.0463	253	C12H6+
169.0646	102	C12H9O+
177.0571	84	C13H7N+
179.0601	34	C12H7N2+
192.0686	49	C13H8N2+
193.0764	16	C13H9N2+
