Mass spectrum: Tepraloxydim; LC-ESI-QFT; MS2; CE: 75%; R=15000; [M+H]+
Name: Tepraloxydim
Name: 2-Cyclohexen-1-one, 2-(1-((((2E)-3-chloro-2-propenyl)oxy)imino)propyl)-3-hydroxy-5-(tetrahydro-2H-pyran-4-yl)-
Name: 2-[N-[(E)-3-chloroprop-2-enoxy]-C-ethylcarbonimidoyl]-3-hydroxy-5-(oxan-4-yl)cyclohex-2-en-1-one
Formula: C17H24ClNO4
Exact mass: 341.1393859
SMILES: CCC(=C1C(=O)CC(CC1=O)C2CCOCC2)NOCC=CCl
InChI: InChI=1S/C17H24ClNO4/c1-2-14(19-23-7-3-6-18)17-15(20)10-13(11-16(17)21)12-4-8-22-9-5-12/h3,6,12-13,19H,2,4-5,7-11H2,1H3
Instrument: Q Exactive Plus
Instrument type: LC-ESI-QFT
Ms type: MS2
Ion mode: POSITIVE
Ionization: ESI
Fragmentation mode: HCD
Collision energy: 75 % (nominal)
Resolution: 15000
Column name: XBridge C18 3.5um, 2.1x50mm, Waters
Retention time: 9.984 min
Base peak: 342.147
Precursor m/z: 342.1467
Precursor type: [M+H]+
Precursor intensity: 337553619.09
m/z	relative intensity	assigned
54.0339	28	C3H4N+
55.0179	70	C3H3O+
55.0542	144	C4H7+
56.0495	129	C3H6N+
57.0336	25	C3H5O+
65.0386	72	C5H5+
67.0542	273	C5H7+
68.0495	159	C4H6N+
69.0335	82	C4H5O+
70.0651	67	C4H8N+
74.9996	247	C3H4Cl+
77.0386	52	C6H5+
79.0542	306	C6H7+
80.0494	55	C5H6N+
81.0336	59	C5H5O+
81.0574	19	C5H7N+
81.0698	157	C6H9+
82.0652	138	C5H8N+
83.0491	193	C5H7O+
84.0809	17	C5H10N+
91.0542	582	C7H7+
92.0495	12	C6H6N+
93.0574	63	C6H7N+
93.0699	309	C7H9+
94.0652	198	C6H8N+
95.0492	288	C6H7O+
95.0855	48	C7H11+
96.0444	469	C5H6NO+
96.0809	25	C6H10N+
97.0524	42	C5H7NO+
98.0601	999	C5H8NO+
103.0543	215	C8H7+
105.0699	205	C8H9+
106.0651	31	C7H8N+
108.0447	28	C6H6NO+
108.0808	278	C7H10N+
109.0649	62	C7H9O+
110.0601	262	C6H8NO+
110.0965	66	C7H12N+
111.0441	80	C6H7O2+
111.068	70	C6H9NO+
114.0916	27	C6H12NO+
115.0541	62	C9H7+
116.0624	20	C9H8+
117.0698	90	C9H9+
118.0653	48	C8H8N+
119.0856	51	C9H11+
120.0444	16	C7H6NO+
121.0648	481	C8H9O+
122.06	105	C7H8NO+
124.0394	31	C6H6NO2+
124.0756	54	C7H10NO+
126.0549	81	C6H8NO2+
128.0623	58	C10H8+
129.0698	53	C10H9+
131.049	20	C9H7O+
131.0857	35	C10H11+
132.0807	43	C9H10N+
133.0649	31	C9H9O+
136.0757	169	C8H10NO+
137.0598	20	C8H9O2+
137.0837	13	C8H11NO+
138.055	16	C7H8NO2+
138.0914	177	C8H12NO+
142.0498	96	C6H8NO3+
144.0808	22	C10H10N+
147.0442	35	C9H7O2+
148.0757	62	C9H10NO+
149.0597	205	C9H9O2+
150.0913	10	C9H12NO+
160.0753	22	C10H10NO+
164.0705	50	C9H10NO2+
166.0863	191	C9H12NO2+
