Mass spectrum: Triclopyr; LC-ESI-QFT; MS2; CE: 45%; R=15000; [M+H]+
Name: Triclopyr
Name: 2-(3,5,6-trichloropyridin-2-yl)oxyacetic acid
Formula: C7H4Cl3NO3
Exact mass: 254.925676
SMILES: OC(=O)COC1=C(Cl)C=C(Cl)C(Cl)=N1
InChI: InChI=1S/C7H4Cl3NO3/c8-3-1-4(9)7(11-6(3)10)14-2-5(12)13/h1H,2H2,(H,12,13)
Instrument: Q Exactive Plus
Instrument type: LC-ESI-QFT
Ms type: MS2
Ion mode: POSITIVE
Ionization: ESI
Fragmentation mode: HCD
Collision energy: 45 % (nominal)
Resolution: 15000
Column name: XBridge C18 3.5um, 2.1x50mm, Waters
Retention time: 9.064 min
Base peak: 164.9845
Precursor m/z: 255.933
Precursor type: [M+H]+
Precursor intensity: 4419539.74
m/z	relative intensity	assigned
62.9632	132	CClO+
146.0002	35	C5H5ClNO2+
163.9663	732	C5H4Cl2NO+
179.9613	71	C5H4Cl2NO2+
181.9324	679	C5H3Cl3N+
197.9274	999	C5H3Cl3NO+
209.9274	665	C6H3Cl3NO+
