Mass spectrum: Ethephon; LC-ESI-QFT; MS2; CE: 60%; R=15000; [M-H]-
Name: Ethephon
Name: 2-chloroethylphosphonic acid
Formula: C2H6ClO3P
Exact mass: 143.9743084
SMILES: C(CCl)P(=O)(O)O
InChI: InChI=1S/C2H6ClO3P/c3-1-2-7(4,5)6/h1-2H2,(H2,4,5,6)
Instrument: Exploris 240 Thermo Scientific
Instrument type: LC-ESI-QFT
Ms type: MS2
Ion mode: NEGATIVE
Ionization: ESI
Fragmentation mode: HCD
Collision energy: 60 % (nominal)
Resolution: 15000
Column name: XBridge C18 3.5um, 2.1x50mm, Waters
Retention time: 1.040 min
Base peak: 106.9904
Precursor m/z: 142.967
Precursor type: [M-H]-
m/z	relative intensity	assigned
78.959	999	O3P-
106.9904	236	C2H4O3P-
