Mass spectrum: Hexaflumuron; LC-ESI-QFT; MS2; CE: 150%; R=15000; [M+H]+
Name: Hexaflumuron
Name: N-[[3,5-dichloro-4-(1,1,2,2-tetrafluoroethoxy)phenyl]carbamoyl]-2,6-difluorobenzamide
Formula: C16H8Cl2F6N2O3
Exact mass: 459.9816168
SMILES: C1=CC(=C(C(=C1)F)C(=O)NC(=O)NC2=CC(=C(C(=C2)Cl)OC(C(F)F)(F)F)Cl)F
InChI: InChI=1S/C16H8Cl2F6N2O3/c17-7-4-6(5-8(18)12(7)29-16(23,24)14(21)22)25-15(28)26-13(27)11-9(19)2-1-3-10(11)20/h1-5,14H,(H2,25,26,27,28)
Instrument: Q Exactive Plus
Instrument type: LC-ESI-QFT
Ms type: MS2
Ion mode: POSITIVE
Ionization: ESI
Fragmentation mode: HCD
Collision energy: 150 % (nominal)
Resolution: 15000
Column name: XBridge C18 3.5um, 2.1x50mm, Waters
Retention time: 13.338 min
Base peak: 164.9845
Precursor m/z: 460.9889
Precursor type: [M+H]+
Precursor intensity: 5320153.06
m/z	relative intensity	assigned
57.0134	19	C3H2F+
61.0072	31	C5H+
62.015	130	C5H2+
63.0229	999	C5H3+
74.015	80	C6H2+
75.0228	18	C6H3+
79.0177	11	C5H3O+
83.0288	10	C5H4F+
92.0056	16	C6HF+
93.0134	130	C6H2F+
99.0102	46	C7HN+
100.018	99	C7H2N+
111.0238	16	C6H4FO+
113.0195	76	C6H3F2+
131.0302	21	C6H5F2O+
141.0147	21	C7H3F2O+
141.0255	119	C6H3F2N2+
