Mass spectrum: Fludioxonil; LC-ESI-QFT; MS2; CE: 180%; R=15000; [M-H]-
Name: Fludioxonil
Name: 4-(2,2-difluoro-1,3-benzodioxol-4-yl)-1H-pyrrole-3-carbonitrile
Formula: C12H6F2N2O2
Exact mass: 248.0397339
SMILES: FC1(F)OC2=CC=CC(=C2O1)C1=CNC=C1C#N
InChI: InChI=1S/C12H6F2N2O2/c13-12(14)17-10-3-1-2-8(11(10)18-12)9-6-16-5-7(9)4-15/h1-3,5-6,16H
Instrument: Q Exactive Plus
Instrument type: LC-ESI-QFT
Ms type: MS2
Ion mode: NEGATIVE
Ionization: ESI
Fragmentation mode: HCD
Collision energy: 180 % (nominal)
Resolution: 15000
Column name: XBridge C18 3.5um, 2.1x50mm, Waters
Retention time: 9.492 min
Base peak: 247.0323
Precursor m/z: 247.0325
Precursor type: [M-H]-
Precursor intensity: 372221920.2
m/z	relative intensity	assigned
50.0035	999	C3N-
64.0066	60	C3N2-
64.0192	32	C4H2N-
65.0145	186	C3HN2-
70.9937	30	C3FO-
73.0083	150	C6H-
74.0036	275	C5N-
88.0191	30	C6H2N-
89.0145	66	C5HN2-
98.0034	92	C7N-
115.0299	52	C7H3N2-
139.0301	34	C9H3N2-
