Mass spectrum: Methyl anthranilate; LC-ESI-QFT; MS2; CE: 150%; R=17500; [M+H]+
Name: Methyl anthranilate
Name: methyl 2-aminobenzoate
Formula: C8H9NO2
Exact mass: 151.0633285
SMILES: COC(=O)C1=CC=CC=C1N
InChI: InChI=1S/C8H9NO2/c1-11-8(10)6-4-2-3-5-7(6)9/h2-5H,9H2,1H3
Instrument: Exploris 240 Orbitrap Thermo Scientific
Instrument type: LC-ESI-QFT
Ms type: MS2
Ion mode: POSITIVE
Ionization: ESI
Fragmentation mode: HCD
Collision energy: 150 % (nominal)
Resolution: 17500
Column name: XBridge C18 3.5um, 2.1x50mm, Waters
Retention time: 5.714 min
Base peak: 120.0442
Precursor m/z: 152.0706
Precursor type: [M+H]+
m/z	relative intensity	assigned
41.0385	2	C3H5+
56.0496	2	C3H6N+
63.0228	3	C5H3+
65.0385	999	C5H5+
66.0338	27	C4H4N+
90.0337	3	C6H4N+
92.0494	159	C6H6N+
110.0599	3	C6H8NO+
120.0442	6	C7H6NO+
