Mass spectrum: Losartan-carboxylic acid; LC-ESI-QFT; MS2; CE: 150%; R=17500; [M+H]+
Name: Losartan-carboxylic acid
Name: Losartan carboxylic acid
Name: 2-butyl-5-chloro-3-[[4-[2-(2H-tetrazol-5-yl)phenyl]phenyl]methyl]imidazole-4-carboxylic acid
Formula: C22H21ClN6O2
Exact mass: 436.1414516
SMILES: CCCCC1=NC(=C(N1CC2=CC=C(C=C2)C3=CC=CC=C3C4=NNN=N4)C(=O)O)Cl
InChI: InChI=1S/C22H21ClN6O2/c1-2-3-8-18-24-20(23)19(22(30)31)29(18)13-14-9-11-15(12-10-14)16-6-4-5-7-17(16)21-25-27-28-26-21/h4-7,9-12H,2-3,8,13H2,1H3,(H,30,31)(H,25,26,27,28)
Instrument: Exploris 240 Orbitrap Thermo Scientific
Instrument type: LC-ESI-QFT
Ms type: MS2
Ion mode: POSITIVE
Ionization: ESI
Fragmentation mode: HCD
Collision energy: 150 % (nominal)
Resolution: 17500
Column name: XBridge C18 3.5um, 2.1x50mm, Waters
Retention time: 8.222 min
Base peak: 437.1482
Precursor m/z: 437.1487
Precursor type: [M+H]+
m/z	relative intensity	assigned
50.0153	20	C4H2+
51.0229	202	C4H3+
52.0181	18	C3H2N+
53.0386	37	C4H5+
63.0228	88	C5H3+
65.0386	41	C5H5+
75.0229	98	C6H3+
77.0385	245	C6H5+
78.0464	31	C6H6+
80.0495	26	C5H6N+
87.0231	47	C7H3+
88.0305	26	C7H4+
89.0384	121	C7H5+
95.0491	73	C6H7O+
99.0231	22	C8H3+
101.0384	28	C8H5+
102.0337	24	C7H4N+
102.0464	71	C8H6+
105.0445	69	C6H5N2+
113.0386	176	C9H5+
114.0465	57	C9H6+
115.0543	125	C9H7+
125.0383	66	C10H5+
126.0462	152	C10H6+
127.054	124	C10H7+
128.0623	85	C10H8+
129.0451	19	C8H5N2+
137.0385	87	C11H5+
138.034	23	C10H4N+
138.0467	50	C11H6+
139.0542	189	C11H7+
140.0493	225	C10H6N+
150.0463	331	C12H6+
151.0541	568	C12H7+
152.062	999	C12H8+
153.0574	34	C11H7N+
155.0605	77	C10H7N2+
161.0387	20	C13H5+
162.046	71	C13H6+
163.0541	411	C13H7+
164.0628	49	C13H8+
165.0706	86	C13H9+
169.0648	191	C12H9O+
176.0621	347	C14H8+
177.0555	161	C7H12ClNO2+
188.0495	107	C14H6N+
189.0573	59	C14H7N+
190.0653	183	C14H8N+
205.0766	89	C14H9N2+
