Mass spectrum: Hesperitin; LC-ESI-QFT; MS2; CE: 75%; R=17500; [M+H]+
Name: Hesperitin
Name: 5,7-dihydroxy-2-(3-hydroxy-4-methoxyphenyl)-3,4-dihydro-2H-1-benzopyran-4-one
Name: 5,7-dihydroxy-2-(3-hydroxy-4-methoxyphenyl)-2,3-dihydrochromen-4-one
Formula: C16H14O6
Exact mass: 302.0790382
SMILES: COC1=C(C=C(C=C1)C2CC(=O)C3=C(C=C(C=C3O2)O)O)O
InChI: InChI=1S/C16H14O6/c1-21-13-3-2-8(4-10(13)18)14-7-12(20)16-11(19)5-9(17)6-15(16)22-14/h2-6,14,17-19H,7H2,1H3
Instrument: Exploris 240 Orbitrap Thermo Scientific
Instrument type: LC-ESI-QFT
Ms type: MS2
Ion mode: POSITIVE
Ionization: ESI
Fragmentation mode: HCD
Collision energy: 75 % (nominal)
Resolution: 17500
Column name: XBridge C18 3.5um, 2.1x50mm, Waters
Retention time: 6.321 min
Base peak: 303.086
Precursor m/z: 303.0863
Precursor type: [M+H]+
m/z	relative intensity	assigned
55.0179	12	C3H3O+
65.0386	18	C5H5+
67.0178	72	C4H3O+
68.997	65	C3HO2+
69.0334	60	C4H5O+
79.0181	5	C5H3O+
83.0126	15	C4H3O2+
89.0386	241	C7H5+
91.0543	28	C7H7+
93.0334	32	C6H5O+
95.0489	4	C6H7O+
97.0283	29	C5H5O2+
106.0411	18	C7H6O+
110.0362	8	C6H6O2+
111.0074	12	C5H3O3+
117.0335	250	C8H5O+
121.0645	9	C8H9O+
122.0365	12	C7H6O2+
123.0442	36	C7H7O2+
125.0228	7	C6H5O3+
125.0597	14	C7H9O2+
134.0362	74	C8H6O2+
135.044	19	C8H7O2+
136.0522	12	C8H8O2+
137.0597	34	C8H9O2+
145.0284	66	C9H5O2+
149.0597	145	C9H9O2+
151.0394	4	C8H7O3+
153.0182	999	C7H5O4+
162.0313	14	C9H6O3+
163.0387	33	C9H7O3+
166.026	6	C8H6O4+
177.0545	54	C10H9O3+
179.034	24	C9H7O4+
