Mass spectrum: Cyphenothrin; LC-ESI-QFT; MS2; CE: 30%; R=15000; [M+H]+
Name: Cyphenothrin
Name: [cyano-(3-phenoxyphenyl)methyl] 2,2-dimethyl-3-(2-methylprop-1-enyl)cyclopropane-1-carboxylate
Formula: C24H25NO3
Exact mass: 375.1834437
SMILES: CC(=CC1C(C1(C)C)C(=O)OC(C#N)C2=CC(=CC=C2)OC3=CC=CC=C3)C
InChI: InChI=1S/C24H25NO3/c1-16(2)13-20-22(24(20,3)4)23(26)28-21(15-25)17-9-8-12-19(14-17)27-18-10-6-5-7-11-18/h5-14,20-22H,1-4H3
Instrument: Exploris 240 Thermo Scientific
Instrument type: LC-ESI-QFT
Ms type: MS2
Ion mode: POSITIVE
Ionization: ESI
Fragmentation mode: HCD
Collision energy: 30 % (nominal)
Resolution: 15000
Column name: XBridge C18 3.5um, 2.1x50mm, Waters
Retention time: 15.687 min
Base peak: 398.172
Precursor m/z: 376.1907
Precursor type: [M+H]+
m/z	relative intensity	assigned
59.0491	10	C3H7O+
69.0698	14	C5H9+
81.0697	63	C6H9+
93.0695	12	C7H9+
107.0851	39	C8H11+
109.101	33	C8H13+
121.1009	39	C9H13+
122.1089	35	C9H14+
123.1166	950	C9H15+
133.101	23	C10H13+
151.1114	999	C10H15O+
180.0803	58	C13H10N+
181.0645	336	C13H9O+
198.0911	17	C13H12NO+
208.0753	151	C14H10NO+
226.0857	42	C14H12NO2+
248.1068	21	C17H14NO+
330.1851	37	C23H24NO+
376.1902	61	C24H26NO3+
