Mass spectrum: Abacavir; LC-ESI-QFT; MS2; CE: 120%; R=17500; [M+H]+
Name: Abacavir
Name: {4-[2-amino-6-(cyclopropylamino)-9H-purin-9-yl]cyclopent-2-en-1-yl}methanol
Name: [4-[2-amino-6-(cyclopropylamino)purin-9-yl]cyclopent-2-en-1-yl]methanol
Formula: C14H18N6O
Exact mass: 286.1542092
SMILES: C1CC1NC2=C3C(=NC(=N2)N)N(C=N3)C4CC(C=C4)CO
InChI: InChI=1S/C14H18N6O/c15-14-18-12(17-9-2-3-9)11-13(19-14)20(7-16-11)10-4-1-8(5-10)6-21/h1,4,7-10,21H,2-3,5-6H2,(H3,15,17,18,19)
Instrument: Exploris 240 Orbitrap Thermo Scientific
Instrument type: LC-ESI-QFT
Ms type: MS2
Ion mode: POSITIVE
Ionization: ESI
Fragmentation mode: HCD
Collision energy: 120 % (nominal)
Resolution: 17500
Column name: XBridge C18 3.5um, 2.1x50mm, Waters
Retention time: 3.267 min
Base peak: 287.1609
Precursor m/z: 287.1615
Precursor type: [M+H]+
m/z	relative intensity	assigned
51.023	96	C4H3+
53.0385	114	C4H5+
55.0179	52	C3H3O+
55.029	149	C2H3N2+
56.0497	39	C3H6N+
58.0651	282	C3H8N+
65.0385	76	C5H5+
67.029	60	C3H3N2+
67.0542	367	C5H7+
68.0493	27	C4H6N+
77.0385	995	C6H5+
78.0338	41	C5H4N+
79.0542	876	C6H7+
80.0241	181	C3H2N3+
82.04	120	C3H4N3+
92.0244	195	C4H2N3+
94.0403	38	C4H4N3+
95.049	291	C6H7O+
95.0607	68	C5H7N2+
105.0447	398	C6H5N2+
107.0352	706	C4H3N4+
108.0429	419	C4H4N4+
109.0508	464	C4H5N4+
119.0354	39	C5H3N4+
120.0555	71	C6H6N3+
122.0715	29	C6H8N3+
133.0384	111	C5H3N5+
134.0461	999	C5H4N5+
137.0459	50	C5H5N4O+
150.0646	339	C5H6N6+
174.0783	36	C8H8N5+
175.0727	142	C7H7N6+
