Mass spectrum: Torasemidecarboxylic acid; LC-ESI-QFT; MS2; CE: 30%; R=17500; [M+H]+
Name: Torasemidecarboxylic acid
Name: Torsemide Carboxylic Acid
Name: 3-[[3-(propan-2-ylcarbamoylsulfamoyl)pyridin-4-yl]amino]benzoic acid
Formula: C16H18N4O5S
Exact mass: 378.0997907
SMILES: CC(C)NC(=O)NS(=O)(=O)C1=C(C=CN=C1)NC2=CC=CC(=C2)C(=O)O
InChI: InChI=1S/C16H18N4O5S/c1-10(2)18-16(23)20-26(24,25)14-9-17-7-6-13(14)19-12-5-3-4-11(8-12)15(21)22/h3-10H,1-2H3,(H,17,19)(H,21,22)(H2,18,20,23)
Instrument: Exploris 240 Orbitrap Thermo Scientific
Instrument type: LC-ESI-QFT
Ms type: MS2
Ion mode: POSITIVE
Ionization: ESI
Fragmentation mode: HCD
Collision energy: 30 % (nominal)
Resolution: 17500
Column name: XBridge C18 3.5um, 2.1x50mm, Waters
Retention time: 4.459 min
Base peak: 379.1067
Precursor m/z: 379.1071
Precursor type: [M+H]+
m/z	relative intensity	assigned
259.0172	4	C12H7N2O3S+
277.0275	1	C12H9N2O4S+
294.0543	999	C12H12N3O4S+
320.0337	129	C13H10N3O5S+
