Mass spectrum: Tris-2-Butoxyethyl--Phosphate; LC-ESI-QFT; MS2; CE: 25%; R=15000; [M+H]+
Name: Tris-2-Butoxyethyl--Phosphate
Name: tris(2-butoxyethyl) phosphate
Formula: C18H39O7P
Exact mass: 398.2433402
SMILES: CCCCOCCOP(=O)(OCCOCCCC)OCCOCCCC
InChI: InChI=1S/C18H39O7P/c1-4-7-10-20-13-16-23-26(19,24-17-14-21-11-8-5-2)25-18-15-22-12-9-6-3/h4-18H2,1-3H3
Instrument: Exploris 240 Thermo Scientific
Instrument type: LC-ESI-QFT
Ms type: MS2
Ion mode: POSITIVE
Ionization: ESI
Fragmentation mode: HCD
Collision energy: 25 % (nominal)
Resolution: 15000
Column name: XBridge C18 3.5um, 2.1x50mm, Waters
Retention time: 13.110 min
Base peak: 399.2502
Precursor m/z: 399.2506
Precursor type: [M+H]+
m/z	relative intensity	assigned
55.0542	351	C4H7+
57.0699	999	C4H9+
59.0491	94	C3H7O+
83.0854	168	C6H11+
98.9842	182	H4O4P+
101.0963	144	C6H13O+
143.01	57	C2H8O5P+
202.0778	452	C16H10+
203.0834	126	C9H16O3P+
