Mass spectrum: Quinine; LC-ESI-QFT; MS2; CE: 90%; R=17500; [M+H]+
Name: Quinine
Name: Cinchonan-9-ol, 6`-methoxy-, (8alpha,9R)-
Name: (5-ethenyl-1-azabicyclo[2.2.2]octan-2-yl)-(6-methoxyquinolin-4-yl)methanol
Formula: C20H24N2O2
Exact mass: 324.183778
SMILES: COC1=CC2=C(C=CN=C2C=C1)C(C3CC4CCN3CC4C=C)O
InChI: InChI=1S/C20H24N2O2/c1-3-13-12-22-9-7-14(13)10-19(22)20(23)16-6-8-21-18-5-4-15(24-2)11-17(16)18/h3-6,8,11,13-14,19-20,23H,1,7,9-10,12H2,2H3
Instrument: Exploris 240 Orbitrap Thermo Scientific
Instrument type: LC-ESI-QFT
Ms type: MS2
Ion mode: POSITIVE
Ionization: ESI
Fragmentation mode: HCD
Collision energy: 90 % (nominal)
Resolution: 17500
Column name: XBridge C18 3.5um, 2.1x50mm, Waters
Retention time: 4.008 min
Base peak: 325.1906
Precursor m/z: 325.1911
Precursor type: [M+H]+
m/z	relative intensity	assigned
53.0385	215	C4H5+
55.0542	168	C4H7+
56.0495	46	C3H6N+
65.0386	71	C5H5+
66.0466	42	C5H6+
67.0419	32	C4H5N+
67.0542	224	C5H7+
68.0495	65	C4H6N+
69.0574	25	C4H7N+
70.0653	30	C4H8N+
77.0386	109	C6H5+
79.0542	999	C6H7+
80.0495	203	C5H6N+
81.0699	565	C6H9+
82.0652	163	C5H8N+
91.0544	116	C7H7+
93.0575	40	C6H7N+
93.07	32	C7H9+
94.065	50	C6H8N+
95.0492	34	C6H7O+
95.0732	24	C6H9N+
95.0856	26	C7H11+
96.081	25	C6H10N+
105.0445	42	C6H5N2+
105.0701	34	C8H9+
106.0654	46	C7H8N+
108.0807	89	C7H10N+
115.0544	61	C9H7+
117.0574	115	C8H7N+
120.0811	29	C8H10N+
131.0734	58	C9H9N+
134.0967	55	C9H12N+
141.0577	43	C10H7N+
142.0654	53	C10H8N+
143.0729	151	C10H9N+
144.081	42	C10H10N+
145.0522	101	C9H7NO+
145.0646	22	C10H9O+
154.0655	125	C11H8N+
155.0729	131	C11H9N+
156.0814	23	C11H10N+
157.0527	48	C10H7NO+
158.0602	104	C10H8NO+
159.068	65	C10H9NO+
160.0755	264	C10H10NO+
166.0647	30	C12H8N+
167.0733	111	C12H9N+
169.0524	155	C11H7NO+
170.0604	67	C11H8NO+
171.0677	40	C11H9NO+
172.0757	497	C11H10NO+
173.0838	59	C11H11NO+
174.0913	27	C11H12NO+
180.0805	42	C13H10N+
182.0607	71	C12H8NO+
183.0677	133	C12H9NO+
186.0912	150	C12H12NO+
188.0715	23	C11H10NO2+
196.0761	48	C13H10NO+
198.0915	62	C13H12NO+
200.0705	28	C12H10NO2+
210.0918	67	C14H12NO+
251.1185	36	C16H15N2O+
