Mass spectrum: Dasatinib; LC-ESI-QFT; MS2; CE: 45%; R=15000; [M+H]+
Name: Dasatinib
Name: N-(2-chloro-6-methylphenyl)-2-[[6-[4-(2-hydroxyethyl)piperazin-1-yl]-2-methylpyrimidin-4-yl]amino]-1,3-thiazole-5-carboxamide
Formula: C22H26ClN7O2S
Exact mass: 487.1557218
SMILES: CC1=C(C(=CC=C1)Cl)NC(=O)C2=CN=C(S2)NC3=CC(=NC(=N3)C)N4CCN(CC4)CCO
InChI: InChI=1S/C22H26ClN7O2S/c1-14-4-3-5-16(23)20(14)28-21(32)17-13-24-22(33-17)27-18-12-19(26-15(2)25-18)30-8-6-29(7-9-30)10-11-31/h3-5,12-13,31H,6-11H2,1-2H3,(H,28,32)(H,24,25,26,27)
Instrument: Exploris 240 Thermo Scientific
Instrument type: LC-ESI-QFT
Ms type: MS2
Ion mode: POSITIVE
Ionization: ESI
Fragmentation mode: HCD
Collision energy: 45 % (nominal)
Resolution: 15000
Column name: XBridge C18 3.5um, 2.1x50mm, Waters
Retention time: 5.562 min
Base peak: 488.1632
Precursor m/z: 488.163
Precursor type: [M+H]+
m/z	relative intensity	assigned
88.0756	32	C4H10NO+
114.0913	52	C6H12NO+
193.054	20	C8H9N4S+
232.065	178	C10H10N5S+
234.0806	32	C14H15ClO+
360.0681	49	C16H15ClN5OS+
401.0947	999	C18H18ClN6OS+
427.1103	145	C20H20ClN6OS+
488.1631	84	C22H27ClN7O2S+
