Mass spectrum: Ropivacaine; LC-ESI-QFT; MS2; CE: 80%; R=15000; [M+H]+
Name: Ropivacaine
Name: (2S)-N-(2,6-dimethylphenyl)-1-propyl-piperidine-2-carboxamide
Formula: C17H26N2O
Exact mass: 274.2045135
SMILES: CCCN1CCCCC1C(=O)NC2=C(C=CC=C2C)C
InChI: InChI=1S/C17H26N2O/c1-4-11-19-12-6-5-10-15(19)17(20)18-16-13(2)8-7-9-14(16)3/h7-9,15H,4-6,10-12H2,1-3H3,(H,18,20)
Instrument: Exploris 240 Thermo Scientific
Instrument type: LC-ESI-QFT
Ms type: MS2
Ion mode: POSITIVE
Ionization: ESI
Fragmentation mode: HCD
Collision energy: 80 % (nominal)
Resolution: 15000
Column name: XBridge C18 3.5um, 2.1x50mm, Waters
Retention time: 4.236 min
Base peak: 275.2113
Precursor m/z: 275.2118
Precursor type: [M+H]+
m/z	relative intensity	assigned
55.0542	206	C4H7+
56.0495	999	C3H6N+
69.0575	32	C4H7N+
70.0653	26	C4H8N+
84.0807	270	C5H10N+
202.0778	798	C16H10+
