Mass spectrum: Dichlorvos; LC-ESI-QFT; MS2; CE: 120%; R=15000; [M+H]+
Name: Dichlorvos
Name: 2,2-dichloroethenyl dimethyl phosphate
Formula: C4H7Cl2O4P
Exact mass: 219.9459007
SMILES: COP(=O)(OC)OC=C(Cl)Cl
InChI: InChI=1S/C4H7Cl2O4P/c1-8-11(7,9-2)10-3-4(5)6/h3H,1-2H3
Instrument: Q Exactive Plus
Instrument type: LC-ESI-QFT
Ms type: MS2
Ion mode: POSITIVE
Ionization: ESI
Fragmentation mode: HCD
Collision energy: 120 % (nominal)
Resolution: 15000
Column name: XBridge C18 3.5um, 2.1x50mm, Waters
Retention time: 6.096 min
Base peak: 220.9533
Precursor m/z: 220.9532
Precursor type: [M+H]+
Precursor intensity: 774016924.06
m/z	relative intensity	assigned
59.9761	999	C2HCl+
62.9632	67	CClO+
64.9787	93	H2O2P+
75.9711	36	C2HClO+
76.9788	74	CH2O2P+
78.9943	981	CH4O2P+
82.9448	77	ClHOP+
96.9605	80	CH3ClOP+
97.0047	60	CH6O3P+
112.9998	527	CH6O4P+
127.0155	826	C2H8O4P+
