Mass spectrum: Hesperitin; LC-ESI-QFT; MS2; CE: 45%; R=17500; [M+H]+
Name: Hesperitin
Name: 5,7-dihydroxy-2-(3-hydroxy-4-methoxyphenyl)-3,4-dihydro-2H-1-benzopyran-4-one
Name: 5,7-dihydroxy-2-(3-hydroxy-4-methoxyphenyl)-2,3-dihydrochromen-4-one
Formula: C16H14O6
Exact mass: 302.0790382
SMILES: COC1=C(C=C(C=C1)C2CC(=O)C3=C(C=C(C=C3O2)O)O)O
InChI: InChI=1S/C16H14O6/c1-21-13-3-2-8(4-10(13)18)14-7-12(20)16-11(19)5-9(17)6-15(16)22-14/h2-6,14,17-19H,7H2,1H3
Instrument: Exploris 240 Orbitrap Thermo Scientific
Instrument type: LC-ESI-QFT
Ms type: MS2
Ion mode: POSITIVE
Ionization: ESI
Fragmentation mode: HCD
Collision energy: 45 % (nominal)
Resolution: 17500
Column name: XBridge C18 3.5um, 2.1x50mm, Waters
Retention time: 6.321 min
Base peak: 303.086
Precursor m/z: 303.0863
Precursor type: [M+H]+
m/z	relative intensity	assigned
111.0078	24	C5H3O3+
117.0336	30	C8H5O+
123.044	6	C7H7O2+
125.0596	12	C7H9O2+
137.0597	42	C8H9O2+
145.0284	127	C9H5O2+
149.0597	43	C9H9O2+
151.0389	18	C8H7O3+
151.0755	19	C9H11O2+
153.0182	999	C7H5O4+
163.0389	55	C9H7O3+
175.0752	11	C11H11O2+
177.0546	912	C10H9O3+
179.0339	105	C9H7O4+
201.0553	20	C12H9O3+
215.0695	5	C13H11O3+
219.0655	16	C12H11O4+
243.0657	3	C14H11O4+
285.0763	14	C16H13O5+
303.0864	79	C16H15O6+
