Mass spectrum: 4-Desmethyltrimethoprim; LC-ESI-QFT; MS2; CE: 150%; R=17500; [M+H]+
Name: 4-Desmethyltrimethoprim
Name: 4-((2,4-Diaminopyrimidin-5-yl)methyl)-2,6-dimethoxyphenol
Name: 4-[(2,4-diaminopyrimidin-5-yl)methyl]-2,6-dimethoxyphenol
Formula: C13H16N4O3
Exact mass: 276.1222404
SMILES: COC1=CC(=CC(=C1O)OC)CC2=CN=C(N=C2N)N
InChI: InChI=1S/C13H16N4O3/c1-19-9-4-7(5-10(20-2)11(9)18)3-8-6-16-13(15)17-12(8)14/h4-6,18H,3H2,1-2H3,(H4,14,15,16,17)
Instrument: Exploris 240 Orbitrap Thermo Scientific
Instrument type: LC-ESI-QFT
Ms type: MS2
Ion mode: POSITIVE
Ionization: ESI
Fragmentation mode: HCD
Collision energy: 150 % (nominal)
Resolution: 17500
Column name: XBridge C18 3.5um, 2.1x50mm, Waters
Retention time: 2.197 min
Base peak: 277.1293
Precursor m/z: 277.1295
Precursor type: [M+H]+
m/z	relative intensity	assigned
51.0231	84	C4H3+
52.0182	133	C3H2N+
53.0022	49	C3HO+
53.0386	42	C4H5+
54.0338	777	C3H4N+
55.0179	25	C3H3O+
55.0417	32	C3H5N+
63.023	36	C5H3+
65.0385	161	C5H5+
67.0544	22	C5H7+
68.0369	163	C3H4N2+
69.0447	54	C3H5N2+
77.0386	303	C6H5+
78.034	25	C5H4N+
78.0465	40	C6H6+
79.029	106	C4H3N2+
79.042	24	C5H5N+
79.0544	34	C6H7+
80.0495	57	C5H6N+
81.0447	999	C4H5N2+
83.0478	75	C3H5N3+
89.0388	84	C7H5+
91.0544	75	C7H7+
92.0494	68	C6H6N+
94.0526	80	C5H6N2+
94.065	90	C6H8N+
95.0492	100	C6H7O+
96.0559	56	C4H6N3+
102.034	23	C7H4N+
102.0466	38	C8H6+
103.054	21	C8H7+
104.037	26	C6H4N2+
104.0495	163	C7H6N+
105.045	147	C6H5N2+
106.0403	69	C5H4N3+
109.0508	44	C4H5N4+
114.034	45	C8H4N+
116.0497	132	C8H6N+
118.0653	46	C8H8N+
119.0606	67	C7H7N2+
120.056	55	C6H6N3+
123.0441	25	C7H7O2+
123.0666	134	C5H7N4+
124.0744	30	C5H8N4+
128.0498	84	C9H6N+
129.0448	111	C8H5N2+
130.0407	53	C9H6O+
132.0447	33	C8H6NO+
146.0716	36	C8H8N3+
147.0671	170	C7H7N4+
148.0746	115	C7H8N4+
