Mass spectrum: Linuron; LC-ESI-QFT; MS2; CE: 150%; R=15000; [M+H]+
Name: Linuron
Name: 3-(3,4-dichlorophenyl)-1-methoxy-1-methylurea
Formula: C9H10Cl2N2O2
Exact mass: 248.0119329
SMILES: CON(C)C(=O)NC1=CC=C(Cl)C(Cl)=C1
InChI: InChI=1S/C9H10Cl2N2O2/c1-13(15-2)9(14)12-6-3-4-7(10)8(11)5-6/h3-5H,1-2H3,(H,12,14)
Instrument: Q Exactive Plus
Instrument type: LC-ESI-QFT
Ms type: MS2
Ion mode: POSITIVE
Ionization: ESI
Fragmentation mode: HCD
Collision energy: 150 % (nominal)
Resolution: 15000
Column name: XBridge C18 3.5um, 2.1x50mm, Waters
Retention time: 8.860 min
Base peak: 249.0193
Precursor m/z: 249.0192
Precursor type: [M+H]+
Precursor intensity: 425494460.33
m/z	relative intensity	assigned
52.0182	12	C3H2N+
58.0287	59	C2H4NO+
61.0072	30	C5H+
61.9791	27	CHClN+
62.0151	131	C5H2+
63.0229	553	C5H3+
64.0182	63	C4H2N+
65.0386	23	C5H5+
72.9839	999	C3H2Cl+
74.015	34	C6H2+
76.0181	52	C5H2N+
78.0337	13	C5H4N+
81.0335	29	C5H5O+
82.945	353	CHCl2+
88.0182	11	C6H2N+
90.0338	345	C6H4N+
91.0417	93	C6H5N+
96.9839	157	C5H2Cl+
97.9917	25	C5H3Cl+
98.9996	354	C5H4Cl+
100.0181	14	C7H2N+
106.945	135	C3HCl2+
108.0443	13	C6H6NO+
108.9842	19	C6H2Cl+
111.9949	17	C5H3ClN+
117.0445	27	C7H5N2+
118.0525	96	C7H6N2+
125.0027	133	C6H4ClN+
126.0109	22	C6H5ClN+
132.9606	231	C5H3Cl2+
153.0213	41	C7H6ClN2+
