Mass spectrum: Piperine; LC-ESI-QFT; MS2; CE: 60%; R=17500; [M+H]+
Name: Piperine
Name: Piperidine, 1-(5-(1,3-benzodioxol-5-yl)-1-oxo-2,4-pentadienyl)-
Name: 5-(1,3-benzodioxol-5-yl)-1-piperidin-1-ylpenta-2,4-dien-1-one
Formula: C17H19NO3
Exact mass: 285.1364935
SMILES: C1CCN(CC1)C(=O)C=CC=CC2=CC3=C(C=C2)OCO3
InChI: InChI=1S/C17H19NO3/c19-17(18-10-4-1-5-11-18)7-3-2-6-14-8-9-15-16(12-14)21-13-20-15/h2-3,6-9,12H,1,4-5,10-11,13H2
Instrument: Exploris 240 Orbitrap Thermo Scientific
Instrument type: LC-ESI-QFT
Ms type: MS2
Ion mode: POSITIVE
Ionization: ESI
Fragmentation mode: HCD
Collision energy: 60 % (nominal)
Resolution: 17500
Column name: XBridge C18 3.5um, 2.1x50mm, Waters
Retention time: 9.631 min
Base peak: 286.1434
Precursor m/z: 286.1438
Precursor type: [M+H]+
m/z	relative intensity	assigned
69.0699	189	C5H9+
84.0809	41	C5H10N+
86.0962	36	C5H12N+
112.0757	86	C6H10NO+
115.0542	448	C9H7+
117.0696	33	C9H9+
135.044	519	C8H7O2+
143.0491	435	C10H7O+
151.0991	44	C9H13NO+
159.0439	86	C10H7O2+
171.0439	361	C11H7O2+
173.0596	115	C11H9O2+
201.0546	999	C12H9O3+
