Mass spectrum: N-Desmethylrosuvastatin; LC-ESI-QFT; MS2; CE: 60%; R=17500; [M+H]+
Name: N-Desmethylrosuvastatin
Name: 7-[4-(4-fluorophenyl)-2-(methanesulfonamido)-6-propan-2-ylpyrimidin-5-yl]-3,5-dihydroxyhept-6-enoic acid
Formula: C21H26FN3O6S
Exact mass: 467.1526348
SMILES: CC(C)C1=NC(=NC(=C1C=CC(CC(CC(=O)O)O)O)C2=CC=C(C=C2)F)NS(=O)(=O)C
InChI: InChI=1S/C21H26FN3O6S/c1-12(2)19-17(9-8-15(26)10-16(27)11-18(28)29)20(13-4-6-14(22)7-5-13)24-21(23-19)25-32(3,30)31/h4-9,12,15-16,26-27H,10-11H2,1-3H3,(H,28,29)(H,23,24,25)
Instrument: Exploris 240 Orbitrap Thermo Scientific
Instrument type: LC-ESI-QFT
Ms type: MS2
Ion mode: POSITIVE
Ionization: ESI
Fragmentation mode: HCD
Collision energy: 60 % (nominal)
Resolution: 17500
Column name: XBridge C18 3.5um, 2.1x50mm, Waters
Retention time: 5.375 min
Base peak: 468.1593
Precursor m/z: 468.1599
Precursor type: [M+H]+
m/z	relative intensity	assigned
69.0336	29	C4H5O+
71.0128	63	C3H3O2+
79.0543	38	C6H7+
95.0602	34	C5H7N2+
97.0286	53	C5H5O2+
119.0602	36	C7H7N2+
121.0763	63	C7H9N2+
133.0448	150	C9H6F+
133.0762	46	C8H9N2+
135.0917	54	C8H11N2+
137.1077	56	C8H13N2+
147.0603	25	C10H8F+
147.0911	92	C9H11N2+
148.0561	26	C9H7FN+
175.0667	429	C4H14FNO3S+
187.0652	87	C2H16FO6S+
203.0854	146	C11H10FN3+
213.082	35	C13H10FN2+
214.0778	94	C9H14N2O2S+
214.1027	48	C14H13FN+
215.086	63	C17H11+
215.1108	124	C14H14FN+
216.0933	191	C17H12+
216.1185	53	C14H15FN+
225.0818	43	C8H16FNO3S+
226.102	58	C7H17FN3O2S+
228.0934	268	C18H12+
229.1003	240	C10H17N2O2S+
232.1239	30	C10H20N2O2S+
240.0928	173	C11H16N2O2S+
241.0999	202	C11H17N2O2S+
242.0735	123	C15H11FO2+
242.1083	794	C11H18N2O2S+
243.0842	26	C15H15OS+
243.116	288	C11H19N2O2S+
244.0886	66	C7H17FN2O4S+
244.1243	896	C14H15FN3+
254.1093	130	C9H19FN2O3S+
256.1244	829	C15H15FN3+
258.1399	849	C15H17FN3+
268.1242	296	C13H20N2O2S+
270.1032	34	C12H18N2O3S+
282.1402	52	C17H17FN3+
284.1196	36	C18H17FO2+
284.1553	21	C14H24N2O2S+
286.1348	999	C16H17FN3O+
294.1404	44	C15H22N2O2S+
300.1505	94	C17H19FN3O+
320.0879	32	C20H16O2S+
330.1606	33	C15H26N2O4S+
364.1125	343	C17H19FN3O3S+
390.1837	37	C20H25FN3O4+
