Mass spectrum: Alachlor; LC-ESI-QFT; MS2; CE: 45%; R=15000; [M+H]+
Name: Alachlor
Name: 2-chloro-N-(2,6-diethylphenyl)-N-(methoxymethyl)acetamide
Formula: C14H20ClNO2
Exact mass: 269.1182566
SMILES: CCC1=CC=CC(CC)=C1N(COC)C(=O)CCl
InChI: InChI=1S/C14H20ClNO2/c1-4-11-7-6-8-12(5-2)14(11)16(10-18-3)13(17)9-15/h6-8H,4-5,9-10H2,1-3H3
Instrument: Q Exactive Plus
Instrument type: LC-ESI-QFT
Ms type: MS2
Ion mode: POSITIVE
Ionization: ESI
Fragmentation mode: HCD
Collision energy: 45 % (nominal)
Resolution: 15000
Column name: XBridge C18 3.5um, 2.1x50mm, Waters
Retention time: 10.464 min
Base peak: 238.0993
Precursor m/z: 270.1255
Precursor type: [M+H]+
Precursor intensity: 97784955.41
m/z	relative intensity	assigned
76.9788	33	C2H2ClO+
90.0105	218	C3H5ClN+
118.0652	17	C8H8N+
132.0809	18	C9H10N+
134.0966	34	C9H12N+
145.1011	27	C11H13+
146.0964	70	C10H12N+
147.1042	157	C10H13N+
160.1115	14	C11H14N+
162.1276	999	C11H16N+
172.1122	20	C12H14N+
174.0918	22	C11H12NO+
206.0731	38	C12H13ClN+
220.0889	68	C13H15ClN+
238.0991	149	C13H17ClNO+
