Mass spectrum: 2-Hydroxytrimipramine; LC-ESI-QFT; MS2; CE: 75%; R=17500; [M+H]+
Name: 2-Hydroxytrimipramine
Name: 11-[3-(dimethylamino)-2-methylpropyl]-5,6-dihydrobenzo[b][1]benzazepin-3-ol
Formula: C20H26N2O
Exact mass: 310.2045135
SMILES: CC(CN1C2=C(CCC3=CC=CC=C31)C=C(C=C2)O)CN(C)C
InChI: InChI=1S/C20H26N2O/c1-15(13-21(2)3)14-22-19-7-5-4-6-16(19)8-9-17-12-18(23)10-11-20(17)22/h4-7,10-12,15,23H,8-9,13-14H2,1-3H3
Instrument: Exploris 240 Orbitrap Thermo Scientific
Instrument type: LC-ESI-QFT
Ms type: MS2
Ion mode: POSITIVE
Ionization: ESI
Fragmentation mode: HCD
Collision energy: 75 % (nominal)
Resolution: 17500
Column name: XBridge C18 3.5um, 2.1x50mm, Waters
Retention time: 6.165 min
Base peak: 311.2116
Precursor m/z: 311.2118
Precursor type: [M+H]+
m/z	relative intensity	assigned
55.0542	3	C4H7+
56.0496	3	C3H6N+
58.0651	999	C3H8N+
71.0728	6	C4H9N+
85.0886	10	C5H11N+
100.1121	340	C6H14N+
107.0494	5	C7H7O+
209.0838	123	C14H11NO+
224.1071	72	C15H14NO+
