Mass spectrum: Hydroxychloroquine; LC-ESI-QFT; MS2; CE: 60%; R=15000; [M-H]-
Name: Hydroxychloroquine
Name: 2-[4-[(7-chloroquinolin-4-yl)amino]pentyl-ethylamino]ethanol
Name: 2-[4-[(7-chloranylquinolin-4-yl)amino]pentyl-ethyl-amino]ethanol
Formula: C18H26ClN3O
Exact mass: 335.1764401
SMILES: CCN(CCCC(C)NC1=C2C=CC(=CC2=NC=C1)Cl)CCO
InChI: InChI=1S/C18H26ClN3O/c1-3-22(11-12-23)10-4-5-14(2)21-17-8-9-20-18-13-15(19)6-7-16(17)18/h6-9,13-14,23H,3-5,10-12H2,1-2H3,(H,20,21)
Instrument: Q Exactive
Instrument type: LC-ESI-QFT
Ms type: MS2
Ion mode: NEGATIVE
Ionization: ESI
Fragmentation mode: HCD
Collision energy: 60 % (nominal)
Resolution: 15000
Column name: XBridge C18 3.5um, 2.1x50mm, Waters
Retention time: 2.709 min
Base peak: 334.1693
Precursor m/z: 334.1692
Precursor type: [M-H]-
Precursor intensity: 17961335.22
m/z	relative intensity	assigned
68.0504	23	C4H6N-
177.0224	999	C9H6ClN2-
188.0147	22	C10H5ClN2-
