Mass spectrum: Bimatoprost; LC-ESI-QFT; MS2; CE: 15%; R=15000; [M+H]+
Name: Bimatoprost
Name: (Z)-7-((1R,2R,3R,5S)-3,5-dihydroxy-2-((S,E)-3-hydroxy-5-phenylpent-1-en-1-yl)cyclopentyl)-N-ethylhept-5-enamide
Name: 7-[3,5-dihydroxy-2-(3-hydroxy-5-phenylpent-1-enyl)cyclopentyl]-N-ethylhept-5-enamide
Formula: C25H37NO4
Exact mass: 415.2722587
SMILES: CCNC(=O)CCCC=CCC1C(CC(C1C=CC(CCC2=CC=CC=C2)O)O)O
InChI: InChI=1S/C25H37NO4/c1-2-26-25(30)13-9-4-3-8-12-21-22(24(29)18-23(21)28)17-16-20(27)15-14-19-10-6-5-7-11-19/h3,5-8,10-11,16-17,20-24,27-29H,2,4,9,12-15,18H2,1H3,(H,26,30)
Instrument: Exploris 240 Thermo Scientific
Instrument type: LC-ESI-QFT
Ms type: MS2
Ion mode: POSITIVE
Ionization: ESI
Fragmentation mode: HCD
Collision energy: 15 % (nominal)
Resolution: 15000
Column name: XBridge C18 3.5um, 2.1x50mm, Waters
Retention time: 8.236 min
Base peak: 398.2686
Precursor m/z: 416.2795
Precursor type: [M+H]+
m/z	relative intensity	assigned
158.1175	31	C8H16NO2+
196.1694	93	C12H22NO+
202.0776	434	C16H10+
232.1696	48	C15H22NO+
299.1802	16	C23H23+
317.1895	120	C23H25O+
326.2474	104	C22H32NO+
354.2436	140	C23H32NO2+
362.2479	999	C25H32NO+
380.2589	412	C25H34NO2+
