Mass spectrum: Desacetylbisacodyl; LC-ESI-QFT; MS2; CE: 120%; R=17500; [M+H]+
Name: Desacetylbisacodyl
Name: Deacetylbisacodyl
Name: 4-[(4-hydroxyphenyl)-pyridin-2-ylmethyl]phenol
Formula: C18H15NO2
Exact mass: 277.1102787
SMILES: C1=CC=NC(=C1)C(C2=CC=C(C=C2)O)C3=CC=C(C=C3)O
InChI: InChI=1S/C18H15NO2/c20-15-8-4-13(5-9-15)18(17-3-1-2-12-19-17)14-6-10-16(21)11-7-14/h1-12,18,20-21H
Instrument: Exploris 240 Orbitrap Thermo Scientific
Instrument type: LC-ESI-QFT
Ms type: MS2
Ion mode: POSITIVE
Ionization: ESI
Fragmentation mode: HCD
Collision energy: 120 % (nominal)
Resolution: 17500
Column name: XBridge C18 3.5um, 2.1x50mm, Waters
Retention time: 3.446 min
Base peak: 278.117
Precursor m/z: 278.1176
Precursor type: [M+H]+
m/z	relative intensity	assigned
78.0338	24	C5H4N+
96.0443	7	C5H6NO+
115.0537	9	C9H7+
117.0574	29	C8H7N+
127.0548	9	C10H7+
128.0619	68	C10H8+
129.057	21	C9H7N+
139.0544	67	C11H7+
140.0496	45	C10H6N+
140.0622	25	C11H8+
141.0573	25	C10H7N+
154.065	680	C11H8N+
155.0731	106	C11H9N+
156.0809	31	C11H10N+
165.0572	22	C12H7N+
166.065	191	C12H8N+
167.0729	999	C12H9N+
182.0601	159	C12H8NO+
183.0678	765	C12H9NO+
184.0754	19	C12H10NO+
