Mass spectrum: Edoxaban; LC-ESI-QFT; MS2; CE: 120%; R=15000; [M+H]+
Name: Edoxaban
Name: Edoxaban impurity 5
Name: N`-(5-chloranylpyridin-2-yl)-N-[(1S,2R,4S)-4-(dimethylcarbamoyl)-2-[(5-methyl-6,7-dihydro-4H-[1,3]thiazolo[5,4-c]pyridin-2-yl)carbonylamino]cyclohexyl]ethanediamide
Formula: C24H30ClN7O4S
Exact mass: 547.1768511
SMILES: CN1CCC2=C(C1)SC(=N2)C(=O)NC3CC(CCC3NC(=O)C(=O)NC4=NC=C(C=C4)Cl)C(=O)N(C)C
InChI: InChI=1S/C24H30ClN7O4S/c1-31(2)24(36)13-4-6-15(27-20(33)21(34)30-19-7-5-14(25)11-26-19)17(10-13)28-22(35)23-29-16-8-9-32(3)12-18(16)37-23/h5,7,11,13,15,17H,4,6,8-10,12H2,1-3H3,(H,27,33)(H,28,35)(H,26,30,34)
Instrument: Q Exactive
Instrument type: LC-ESI-QFT
Ms type: MS2
Ion mode: POSITIVE
Ionization: ESI
Fragmentation mode: HCD
Collision energy: 120 % (nominal)
Resolution: 15000
Column name: XBridge C18 3.5um, 2.1x50mm, Waters
Retention time: 4.818 min
Base peak: 548.1841
Precursor m/z: 548.1841
Precursor type: [M+H]+
Precursor intensity: 580986582.02
m/z	relative intensity	assigned
53.0385	37	C4H5+
67.0541	29	C5H7+
72.0444	549	C3H6NO+
76.0182	403	C5H2N+
77.0384	27	C6H5+
79.0543	228	C6H7+
80.0495	86	C5H6N+
84.9838	49	C4H2Cl+
94.0652	999	C6H8N+
95.0492	193	C6H7O+
95.0729	126	C6H9N+
96.0444	45	C5H6NO+
96.0808	74	C6H10N+
105.045	76	C6H5N2+
111.9949	347	C5H3ClN+
112.0213	77	C5H6NS+
130.0054	707	C5H5ClNO+
153.0479	34	C7H9N2S+
155.0007	36	C6H4ClN2O+
