Mass spectrum: Triasulfuron; LC-ESI-QFT; MS2; CE: 90%; R=15000; [M+H]+
Name: Triasulfuron
Name: 1-[2-(2-chloroethoxy)phenyl]sulfonyl-3-(4-methoxy-6-methyl-1,3,5-triazin-2-yl)urea
Formula: C14H16ClN5O5S
Exact mass: 401.0560673
SMILES: CC1=NC(=NC(=N1)OC)NC(=O)NS(=O)(=O)C2=CC=CC=C2OCCCl
InChI: InChI=1S/C14H16ClN5O5S/c1-9-16-12(19-14(17-9)24-2)18-13(21)20-26(22,23)11-6-4-3-5-10(11)25-8-7-15/h3-6H,7-8H2,1-2H3,(H2,16,17,18,19,20,21)
Instrument: Exploris 240 Thermo Scientific
Instrument type: LC-ESI-QFT
Ms type: MS2
Ion mode: POSITIVE
Ionization: ESI
Fragmentation mode: HCD
Collision energy: 90 % (nominal)
Resolution: 15000
Column name: XBridge C18 3.5um, 2.1x50mm, Waters
Retention time: 5.566 min
Base peak: 402.063
Precursor m/z: 402.0633
Precursor type: [M+H]+
m/z	relative intensity	assigned
56.0494	942	C3H6N+
58.0287	679	C2H4NO+
62.9995	635	C2H4Cl+
65.0385	753	C5H5+
69.0083	470	C2HN2O+
75.0229	69	C6H3+
77.0384	159	C6H5+
81.0335	58	C5H5O+
83.0239	344	C3H3N2O+
85.0107	28	C4H5S+
91.0541	999	C7H7+
95.0491	101	C6H7O+
98.9996	57	C5H4Cl+
100.0506	55	C3H6N3O+
109.0106	194	C6H5S+
109.0285	46	C6H5O2+
113.0053	264	C5H5OS+
119.0493	41	C8H7O+
120.0567	83	C8H8O+
121.0282	360	C7H5O2+
137.0054	587	C7H5OS+
139.0057	84	C6H4ClN2+
141.0768	195	C5H9N4O+
167.0561	98	C6H7N4O2+
