Mass spectrum: Tolterodine; LC-ESI-QFT; MS2; CE: 150%; R=15000; [M+H]+
Name: Tolterodine
Name: 2-[(1R)-3-[di(propan-2-yl)amino]-1-phenylpropyl]-4-methylphenol
Formula: C22H31NO
Exact mass: 325.2405646
SMILES: CC(C)N(CC[C@H](C1=CC=CC=C1)C1=C(O)C=CC(C)=C1)C(C)C
InChI: InChI=1S/C22H31NO/c1-16(2)23(17(3)4)14-13-20(19-9-7-6-8-10-19)21-15-18(5)11-12-22(21)24/h6-12,15-17,20,24H,13-14H2,1-5H3/t20-/m1/s1
Instrument: Exploris 240 Thermo Scientific
Instrument type: LC-ESI-QFT
Ms type: MS2
Ion mode: POSITIVE
Ionization: ESI
Fragmentation mode: HCD
Collision energy: 150 % (nominal)
Resolution: 15000
Column name: XBridge C18 3.5um, 2.1x50mm, Waters
Retention time: 6.330 min
Base peak: 326.2476
Precursor m/z: 326.2478
Precursor type: [M+H]+
m/z	relative intensity	assigned
51.0229	98	C4H3+
53.0387	76	C4H5+
55.0178	22	C3H3O+
65.0385	498	C5H5+
77.0386	150	C6H5+
91.0542	999	C7H7+
95.0491	307	C6H7O+
115.0541	335	C9H7+
128.0621	107	C10H8+
152.0621	293	C12H8+
153.0699	261	C12H9+
165.07	95	C13H9+
178.0775	69	C14H10+
181.0649	181	C13H9O+
202.0777	501	C16H10+
