Mass spectrum: Neopentyl-Glycol-Diglycidyl-Ether; LC-ESI-QFT; MS2; CE: 15%; R=15000; [M+H]+
Name: Neopentyl-Glycol-Diglycidyl-Ether
Name: 2-[[2,2-dimethyl-3-(oxiran-2-ylmethoxy)propoxy]methyl]oxirane
Formula: C11H20O4
Exact mass: 216.1361591
SMILES: CC(C)(COCC1CO1)COCC2CO2
InChI: InChI=1S/C11H20O4/c1-11(2,7-12-3-9-5-14-9)8-13-4-10-6-15-10/h9-10H,3-8H2,1-2H3
Instrument: Exploris 240 Thermo Scientific
Instrument type: LC-ESI-QFT
Ms type: MS2
Ion mode: POSITIVE
Ionization: ESI
Fragmentation mode: HCD
Collision energy: 15 % (nominal)
Resolution: 15000
Column name: XBridge C18 3.5um, 2.1x50mm, Waters
Retention time: 5.479 min
Base peak: 234.1696
Precursor m/z: 217.1434
Precursor type: [M+H]+
m/z	relative intensity	assigned
57.0335	56	C3H5O+
57.0698	11	C4H9+
59.0491	23	C3H7O+
69.0699	86	C5H9+
71.0856	28	C5H11+
73.0283	17	C3H5O2+
73.0648	10	C4H9O+
75.044	94	C3H7O2+
87.044	25	C4H7O2+
87.0805	23	C5H11O+
93.0546	93	C3H9O3+
101.0599	16	C5H9O2+
115.0753	42	C6H11O2+
129.0546	32	C6H9O3+
131.0702	63	C6H11O3+
141.0912	13	C8H13O2+
143.1065	32	C8H15O2+
149.0807	24	C6H13O4+
159.1016	10	C8H15O3+
161.1171	184	C8H17O3+
199.1323	14	C11H19O3+
217.1434	999	C11H21O4+
