Mass spectrum: Prallethrin; LC-ESI-QFT; MS2; CE: 150%; R=15000; [M+H]+
Name: Prallethrin
Name: (2-methyl-4-oxo-3-prop-2-ynylcyclopent-2-en-1-yl) 2,2-dimethyl-3-(2-methylprop-1-enyl)cyclopropane-1-carboxylate
Formula: C19H24O3
Exact mass: 300.1725446
SMILES: CC1=C(C(=O)CC1OC(=O)C2C(C2(C)C)C=C(C)C)CC#C
InChI: InChI=1S/C19H24O3/c1-7-8-13-12(4)16(10-15(13)20)22-18(21)17-14(9-11(2)3)19(17,5)6/h1,9,14,16-17H,8,10H2,2-6H3
Instrument: Exploris 240 Thermo Scientific
Instrument type: LC-ESI-QFT
Ms type: MS2
Ion mode: POSITIVE
Ionization: ESI
Fragmentation mode: HCD
Collision energy: 150 % (nominal)
Resolution: 15000
Column name: XBridge C18 3.5um, 2.1x50mm, Waters
Retention time: 12.520 min
Base peak: 301.1796
Precursor m/z: 301.1798
Precursor type: [M+H]+
m/z	relative intensity	assigned
50.015	109	C4H2+
51.0229	963	C4H3+
53.0385	162	C4H5+
55.0178	20	C3H3O+
55.0543	52	C4H7+
59.0493	38	C3H7O+
63.023	34	C5H3+
65.0385	192	C5H5+
66.0463	33	C5H6+
67.0543	50	C5H7+
77.0385	999	C6H5+
79.0542	294	C6H7+
81.0698	50	C6H9+
91.0539	85	C7H7+
95.0491	586	C6H7O+
