Mass spectrum: Methylecgonine; LC-ESI-QFT; MS2; CE: 90%; R=17500; [M+H]+
Name: Methylecgonine
Name: methyl 3-hydroxy-8-methyl-8-azabicyclo[3.2.1]octane-2-carboxylate
Formula: C10H17NO3
Exact mass: 199.1208434
SMILES: CN1C2CCC1C(C(C2)O)C(=O)OC
InChI: InChI=1S/C10H17NO3/c1-11-6-3-4-7(11)9(8(12)5-6)10(13)14-2/h6-9,12H,3-5H2,1-2H3
Instrument: Exploris 240 Orbitrap Thermo Scientific
Instrument type: LC-ESI-QFT
Ms type: MS2
Ion mode: POSITIVE
Ionization: ESI
Fragmentation mode: HCD
Collision energy: 90 % (nominal)
Resolution: 17500
Column name: XBridge C18 3.5um, 2.1x50mm, Waters
Retention time: 0.884 min
Base peak: 200.128
Precursor m/z: 200.1281
Precursor type: [M+H]+
m/z	relative intensity	assigned
53.0386	16	C4H5+
55.0541	7	C4H7+
57.0572	27	C3H7N+
59.0127	20	C2H3O2+
65.0385	120	C5H5+
67.0418	16	C4H5N+
67.0541	42	C5H7+
68.0494	84	C4H6N+
69.0334	25	C4H5O+
70.0652	29	C4H8N+
71.0127	7	C3H3O2+
77.0386	10	C6H5+
79.0543	73	C6H7+
81.0699	25	C6H9+
82.0651	999	C5H8N+
83.0729	194	C5H9N+
84.081	44	C5H10N+
91.0542	161	C7H7+
93.0334	99	C6H5O+
93.07	32	C7H9+
94.0651	103	C6H8N+
95.0732	7	C6H9N+
96.0807	88	C6H10N+
97.0648	47	C6H9O+
100.0756	65	C5H10NO+
107.0729	7	C7H9N+
108.0807	61	C7H10N+
118.0413	20	C8H6O+
119.0492	86	C8H7O+
122.0601	11	C7H8NO+
122.0963	65	C8H12N+
124.1124	12	C8H14N+
154.0867	26	C8H12NO2+
182.1175	147	C10H16NO2+
