Mass spectrum: Nitrofurantoin; LC-ESI-QFT; MS2; CE: 30%; R=15000; [M+H]+
Name: Nitrofurantoin
Name: 1-[(5-Nitro-2-furanyl)methylideneamino]imidazolidine-2,4-dione
Name: 1-[(5-nitrofuran-2-yl)methylideneamino]imidazolidine-2,4-dione
Formula: C8H6N4O5
Exact mass: 238.0338193
SMILES: [O-][N+](=O)C1=CC=C(O1)C=NN1CC(=O)NC1=O
InChI: InChI=1S/C8H6N4O5/c13-6-4-11(8(14)10-6)9-3-5-1-2-7(17-5)12(15)16/h1-3H,4H2,(H,10,13,14)
Instrument: Q Exactive Plus
Instrument type: LC-ESI-QFT
Ms type: MS2
Ion mode: POSITIVE
Ionization: ESI
Fragmentation mode: HCD
Collision energy: 30 % (nominal)
Resolution: 15000
Column name: XBridge C18 3.5um, 2.1x50mm, Waters
Retention time: 3.220 min
Base peak: 164.9847
Precursor m/z: 239.0411
Precursor type: [M+H]+
Precursor intensity: 8988663.19
m/z	relative intensity	assigned
55.0293	15	C2H3N2+
67.0417	412	C4H5N+
79.018	10	C5H3O+
82.0051	35	C4H2O2+
82.0288	15	C4H4NO+
83.0366	110	C4H5NO+
93.0212	10	C5H3NO+
93.0448	21	C5H5N2+
94.0527	18	C5H6N2+
95.0367	999	C5H5NO+
98.035	272	C3H4N3O+
100.0268	160	C3H4N2O2+
101.0347	17	C3H5N2O2+
110.024	27	C5H4NO2+
111.0316	237	C5H5NO2+
121.0398	137	C6H5N2O+
122.0112	378	C5H2N2O2+
124.0268	11	C5H4N2O2+
126.0299	308	C4H4N3O2+
137.0346	12	C6H5N2O2+
138.0425	74	C6H6N2O2+
139.014	527	C5H3N2O3+
149.0348	260	C7H5N2O2+
150.0425	13	C7H6N2O2+
151.0374	10	C6H5N3O2+
157.0245	35	C5H5N2O4+
164.0456	14	C7H6N3O2+
168.0406	389	C6H6N3O3+
193.0484	51	C8H7N3O3+
212.0306	26	C7H6N3O5+
222.0385	690	C8H6N4O4+
239.0413	472	C8H7N4O5+
