Mass spectrum: PFHxPA; LC-ESI-QFT; MS2; CE: 15%; R=17500; [M-H]-
Name: PFHxPA
Name: (Tridecafluorohexyl)phosphonic acid
Name: 1,1,2,2,3,3,4,4,5,5,6,6,6-tridecafluorohexylphosphonic acid
Formula: C6H2F13O3P
Exact mass: 399.953397414
SMILES: C(C(C(C(F)(F)P(=O)(O)O)(F)F)(F)F)(C(C(F)(F)F)(F)F)(F)F
InChI: InChI=1S/C6H2F13O3P/c7-1(8,3(11,12)5(15,16)17)2(9,10)4(13,14)6(18,19)23(20,21)22/h(H2,20,21,22)
Instrument: Exploris 240 Orbitrap Thermo Scientific
Instrument type: LC-ESI-QFT
Ms type: MS2
Ion mode: NEGATIVE
Ionization: ESI
Fragmentation mode: HCD
Collision energy: 15 % (nominal)
Resolution: 17500
Column name: XBridge C18 3.5um, 2.1x50mm, Waters
Retention time: 7.418 min
Base peak: 398.9459
Precursor m/z: 398.9461
Precursor type: [M-H]-
m/z	relative intensity	assigned
78.9588	10	O3P-
398.9462	999	C6HF13O3P-
