Mass spectrum: Tapentadol O-sulfate; LC-ESI-QFT; MS2; CE: 150%; R=17500; [M+H]+
Name: Tapentadol O-sulfate
Name: [3-[1-(dimethylamino)-2-methylpentan-3-yl]phenyl] hydrogen sulfate
Formula: C14H23NO4S
Exact mass: 301.1347792
SMILES: CCC(C1=CC(=CC=C1)OS(=O)(=O)O)C(C)CN(C)C
InChI: InChI=1S/C14H23NO4S/c1-5-14(11(2)10-15(3)4)12-7-6-8-13(9-12)19-20(16,17)18/h6-9,11,14H,5,10H2,1-4H3,(H,16,17,18)
Instrument: Exploris 240 Orbitrap Thermo Scientific
Instrument type: LC-ESI-QFT
Ms type: MS2
Ion mode: POSITIVE
Ionization: ESI
Fragmentation mode: HCD
Collision energy: 150 % (nominal)
Resolution: 17500
Column name: XBridge C18 3.5um, 2.1x50mm, Waters
Retention time: 4.219 min
Base peak: 302.1418
Precursor m/z: 302.1421
Precursor type: [M+H]+
m/z	relative intensity	assigned
50.0152	13	C4H2+
51.0229	171	C4H3+
53.0386	137	C4H5+
55.0179	96	C3H3O+
55.0542	12	C4H7+
58.0651	64	C3H8N+
65.0384	64	C5H5+
77.0386	999	C6H5+
78.0463	28	C6H6+
79.0542	228	C6H7+
81.0335	24	C5H5O+
89.0386	19	C7H5+
91.0542	211	C7H7+
93.0698	13	C7H9+
94.0411	20	C6H6O+
95.0491	330	C6H7O+
103.0543	75	C8H7+
107.0491	413	C7H7O+
115.0544	53	C9H7+
