Mass spectrum: Bicalutamide; LC-ESI-QFT; MS2; CE: 90%; R=15000; [M+H]+
Name: Bicalutamide
Name: N-[4-cyano-3-(trifluoromethyl)phenyl]-3-(4-fluorophenyl)sulfonyl-2-hydroxy-2-methylpropanamide
Formula: C18H14F4N2O4S
Exact mass: 430.0610408
SMILES: CC(O)(CS(=O)(=O)C1=CC=C(F)C=C1)C(=O)NC1=CC(=C(C=C1)C#N)C(F)(F)F
InChI: InChI=1S/C18H14F4N2O4S/c1-17(26,10-29(27,28)14-6-3-12(19)4-7-14)16(25)24-13-5-2-11(9-23)15(8-13)18(20,21)22/h2-8,26H,10H2,1H3,(H,24,25)
Instrument: Q Exactive Plus
Instrument type: LC-ESI-QFT
Ms type: MS2
Ion mode: POSITIVE
Ionization: ESI
Fragmentation mode: HCD
Collision energy: 90 % (nominal)
Resolution: 15000
Column name: XBridge C18 3.5um, 2.1x50mm, Waters
Retention time: 8.374 min
Base peak: 164.9846
Precursor m/z: 431.0683
Precursor type: [M+H]+
Precursor intensity: 31308584.26
m/z	relative intensity	assigned
50.0151	32	C4H2+
51.023	78	C4H3+
53.0022	30	C3HO+
71.0292	125	C4H4F+
74.0151	59	C6H2+
75.0229	489	C6H3+
79.0179	34	C5H3O+
83.0295	10	C5H4F+
90.0338	11	C6H4N+
93.0335	21	C6H5O+
95.0292	180	C6H4F+
99.024	24	C5H4FO+
111.0242	11	C6H4FO+
111.0441	35	C6H7O2+
113.0397	910	C6H6FO+
115.0012	91	C5H4FS+
117.0448	18	C7H5N2+
118.0525	56	C7H6N2+
123.0353	999	C6H4FN2+
140.0307	48	C7H4F2N+
142.9962	100	F4H3O4+
148.0194	23	C8H3FNO+
148.0307	12	C12H4+
158.9907	12	C6H4FO2S+
165.0458	53	C8H6FN2O+
167.0415	43	C8H5F2N2+
185.0521	243	C8H7F2N2O+
