Mass spectrum: 2-Benzyl-2-(dimethylamino)-1-[4-(morpholin-4-yl)phenyl]butan-1-one; LC-ESI-QFT; MS2; CE: 150%; R=15000; [M+H]+
Name: 2-Benzyl-2-(dimethylamino)-1-[4-(morpholin-4-yl)phenyl]butan-1-one
Name: 2-Benzyl-2-dimethylamino-1-(4-morpholinophenyl)-1-butanone
Name: 2-benzyl-2-(dimethylamino)-1-(4-morpholin-4-ylphenyl)butan-1-one
Formula: C23H30N2O2
Exact mass: 366.2307282
SMILES: CCC(CC1=CC=CC=C1)(N(C)C)C(=O)C1=CC=C(C=C1)N1CCOCC1
InChI: InChI=1S/C23H30N2O2/c1-4-23(24(2)3,18-19-8-6-5-7-9-19)22(26)20-10-12-21(13-11-20)25-14-16-27-17-15-25/h5-13H,4,14-18H2,1-3H3
Instrument: Exploris 240 Thermo Scientific
Instrument type: LC-ESI-QFT
Ms type: MS2
Ion mode: POSITIVE
Ionization: ESI
Fragmentation mode: HCD
Collision energy: 150 % (nominal)
Resolution: 15000
Column name: XBridge C18 3.5um, 2.1x50mm, Waters
Retention time: 5.169 min
Base peak: 367.2376
Precursor m/z: 367.238
Precursor type: [M+H]+
m/z	relative intensity	assigned
50.0152	30	C4H2+
51.0229	119	C4H3+
53.0386	107	C4H5+
56.0493	55	C3H6N+
63.023	38	C5H3+
65.0385	406	C5H5+
70.0651	101	C4H8N+
77.0386	170	C6H5+
78.0465	110	C6H6+
79.0542	154	C6H7+
89.0385	93	C7H5+
90.0464	111	C7H6+
91.0542	999	C7H7+
95.0491	365	C6H7O+
96.0443	78	C5H6NO+
103.054	132	C8H7+
104.0493	140	C7H6N+
104.0621	71	C8H8+
105.0446	170	C6H5N2+
115.0541	218	C9H7+
116.0623	29	C9H8+
117.0575	220	C8H7N+
117.07	114	C9H9+
118.065	191	C8H8N+
128.0623	30	C10H8+
130.0653	86	C9H8N+
131.073	47	C9H9N+
132.0805	79	C9H10N+
144.081	60	C10H10N+
146.0964	76	C10H12N+
165.0697	63	C13H9+
178.0777	362	C14H10+
179.0858	38	C14H11+
202.0779	365	C16H10+
