Mass spectrum: Pentoxifylline; LC-ESI-QFT; MS2; CE: 150%; R=17500; [M+H]+
Name: Pentoxifylline
Name: 3,7-dimethyl-1-(5-oxohexyl)purine-2,6-dione
Formula: C13H18N4O3
Exact mass: 278.1378904
SMILES: CC(=O)CCCCN1C(=O)C2=C(N=CN2C)N(C1=O)C
InChI: InChI=1S/C13H18N4O3/c1-9(18)6-4-5-7-17-12(19)10-11(14-8-15(10)2)16(3)13(17)20/h8H,4-7H2,1-3H3
Instrument: Exploris 240 Orbitrap Thermo Scientific
Instrument type: LC-ESI-QFT
Ms type: MS2
Ion mode: POSITIVE
Ionization: ESI
Fragmentation mode: HCD
Collision energy: 150 % (nominal)
Resolution: 17500
Column name: XBridge C18 3.5um, 2.1x50mm, Waters
Retention time: 4.458 min
Base peak: 279.1449
Precursor m/z: 279.1452
Precursor type: [M+H]+
m/z	relative intensity	assigned
53.0135	77	C2HN2+
54.0338	64	C3H4N+
56.0496	139	C3H6N+
67.0291	999	C3H3N2+
68.037	252	C3H4N2+
69.0447	263	C3H5N2+
81.0449	45	C4H5N2+
83.0605	164	C4H7N2+
122.0589	118	C5H6N4+
123.0429	84	C5H5N3O+
