Mass spectrum: 4-Hydroxybenzaldehyde; LC-ESI-QFT; MS2; CE: 75%; R=17500; [M+H]+
Name: 4-Hydroxybenzaldehyde
Formula: C7H6O2
Exact mass: 122.0367794
SMILES: C1=CC(=CC=C1C=O)O
InChI: InChI=1S/C7H6O2/c8-5-6-1-3-7(9)4-2-6/h1-5,9H
Instrument: Exploris 240 Orbitrap Thermo Scientific
Instrument type: LC-ESI-QFT
Ms type: MS2
Ion mode: POSITIVE
Ionization: ESI
Fragmentation mode: HCD
Collision energy: 75 % (nominal)
Resolution: 17500
Column name: XBridge C18 3.5um, 2.1x50mm, Waters
Retention time: 3.323 min
Base peak: 132.9582
Precursor m/z: 123.0441
Precursor type: [M+H]+
m/z	relative intensity	assigned
41.0385	2	C3H5+
51.0229	3	C4H3+
53.0385	61	C4H5+
55.0177	6	C3H3O+
65.0385	6	C5H5+
67.0541	55	C5H7+
77.0385	341	C6H5+
81.0334	2	C5H5O+
94.0414	6	C6H6O+
95.049	999	C6H7O+
123.044	74	C7H7O2+
