Mass spectrum: Melatonin; LC-ESI-QFT; MS2; CE: 50%; R=15000; [M+H]+
Name: Melatonin
Name: N-[2-(5-methoxy-1H-indol-3-yl)ethyl]ethanamide
Formula: C13H16N2O2
Exact mass: 232.1211778
SMILES: CC(=O)NCCC1=CNC2=C1C=C(C=C2)OC
InChI: InChI=1S/C13H16N2O2/c1-9(16)14-6-5-10-8-15-13-4-3-11(17-2)7-12(10)13/h3-4,7-8,15H,5-6H2,1-2H3,(H,14,16)
Instrument: Exploris 240 Thermo Scientific
Instrument type: LC-ESI-QFT
Ms type: MS2
Ion mode: POSITIVE
Ionization: ESI
Fragmentation mode: HCD
Collision energy: 50 % (nominal)
Resolution: 15000
Column name: XBridge C18 3.5um, 2.1x50mm, Waters
Retention time: 4.312 min
Base peak: 233.128
Precursor m/z: 233.1285
Precursor type: [M+H]+
m/z	relative intensity	assigned
91.054	48	C7H7+
104.062	16	C8H8+
105.0573	26	C7H7N+
115.0542	118	C9H7+
117.0698	54	C9H9+
118.0647	15	C8H8N+
130.0651	415	C9H8N+
131.0729	926	C9H9N+
132.0446	15	C8H6NO+
142.0648	46	C10H8N+
143.0729	532	C10H9N+
144.0808	51	C10H10N+
147.081	17	C10H11O+
158.0602	63	C10H8NO+
159.0678	999	C10H9NO+
160.0754	12	C10H10NO+
173.0832	29	C11H11NO+
174.0913	244	C11H12NO+
