Mass spectrum: Pyridate; LC-ESI-QFT; MS2; CE: 90%; R=15000; [M+H]+
Name: Pyridate
Name: (6-chloro-3-phenylpyridazin-4-yl) octylsulfanylformate
Formula: C19H23ClN2O2S
Exact mass: 378.1168767
SMILES: CCCCCCCCSC(=O)OC1=CC(Cl)=NN=C1C1=CC=CC=C1
InChI: InChI=1S/C19H23ClN2O2S/c1-2-3-4-5-6-10-13-25-19(23)24-16-14-17(20)21-22-18(16)15-11-8-7-9-12-15/h7-9,11-12,14H,2-6,10,13H2,1H3
Instrument: Q Exactive Plus
Instrument type: LC-ESI-QFT
Ms type: MS2
Ion mode: POSITIVE
Ionization: ESI
Fragmentation mode: HCD
Collision energy: 90 % (nominal)
Resolution: 15000
Column name: XBridge C18 3.5um, 2.1x50mm, Waters
Retention time: 16.445 min
Base peak: 379.1244
Precursor m/z: 379.1242
Precursor type: [M+H]+
Precursor intensity: 282888817.6
m/z	relative intensity	assigned
51.0229	62	C4H3+
53.0386	213	C4H5+
55.0542	31	C4H7+
57.0699	137	C4H9+
61.9792	117	CHClN+
68.0131	999	C3H2NO+
69.0699	24	C5H9+
77.0385	108	C6H5+
81.0336	16	C5H5O+
95.0491	678	C6H7O+
103.9897	68	C3H3ClNO+
104.0495	425	C7H6N+
105.0447	193	C6H5N2+
115.0544	24	C9H7+
116.0498	23	C8H6N+
117.0572	14	C8H7N+
126.0463	195	C10H6+
143.0607	24	C9H7N2+
161.0159	11	C10H6Cl+
207.0318	96	C10H8ClN2O+
