Mass spectrum: 4-(Methylthio)benzaldehyde; LC-ESI-QFT; MS2; CE: 75%; R=15000; [M+H]+
Name: 4-(Methylthio)benzaldehyde
Name: 4-methylsulfanylbenzaldehyde
Formula: C8H8OS
Exact mass: 152.0295859
SMILES: CSC1=CC=C(C=O)C=C1
InChI: InChI=1S/C8H8OS/c1-10-8-4-2-7(6-9)3-5-8/h2-6H,1H3
Instrument: Exploris 240 Thermo Scientific
Instrument type: LC-ESI-QFT
Ms type: MS2
Ion mode: POSITIVE
Ionization: ESI
Fragmentation mode: HCD
Collision energy: 75 % (nominal)
Resolution: 15000
Column name: XBridge C18 3.5um, 2.1x50mm, Waters
Retention time: 6.327 min
Base peak: 132.9581
Precursor m/z: 153.0369
Precursor type: [M+H]+
m/z	relative intensity	assigned
53.0386	13	C4H5+
65.0385	17	C5H5+
78.0464	99	C6H6+
79.0542	25	C6H7+
95.0491	69	C6H7O+
109.0106	999	C6H5S+
110.0184	251	C6H6S+
111.0263	37	C6H7S+
124.0339	14	C7H8S+
125.0418	93	C7H9S+
138.0131	10	C7H6OS+
153.0372	21	C8H9OS+
