Mass spectrum: 4-(Methylthio)benzaldehyde; LC-ESI-QFT; MS2; CE: 180%; R=15000; [M+H]+
Name: 4-(Methylthio)benzaldehyde
Name: 4-methylsulfanylbenzaldehyde
Formula: C8H8OS
Exact mass: 152.0295859
SMILES: CSC1=CC=C(C=O)C=C1
InChI: InChI=1S/C8H8OS/c1-10-8-4-2-7(6-9)3-5-8/h2-6H,1H3
Instrument: Exploris 240 Thermo Scientific
Instrument type: LC-ESI-QFT
Ms type: MS2
Ion mode: POSITIVE
Ionization: ESI
Fragmentation mode: HCD
Collision energy: 180 % (nominal)
Resolution: 15000
Column name: XBridge C18 3.5um, 2.1x50mm, Waters
Retention time: 6.327 min
Base peak: 132.9581
Precursor m/z: 153.0369
Precursor type: [M+H]+
m/z	relative intensity	assigned
44.9793	107	CHS+
50.0151	76	C4H2+
51.0229	861	C4H3+
52.0307	149	C4H4+
53.0386	45	C4H5+
57.9872	46	C2H2S+
65.0385	999	C5H5+
66.0464	951	C5H6+
68.9793	253	C3HS+
77.0385	176	C6H5+
78.0464	261	C6H6+
84.0028	67	C4H4S+
95.0491	264	C6H7O+
109.0106	258	C6H5S+
110.0184	57	C6H6S+
