Mass spectrum: Meropenem; LC-ESI-QFT; MS2; CE: 45%; R=15000; [M-H]-
Name: Meropenem
Name: 3-[5-(dimethylcarbamoyl)pyrrolidin-3-yl]sulfanyl-6-(1-hydroxyethyl)-4-methyl-7-oxo-1-azabicyclo[3.2.0]hept-2-ene-2-carboxylic acid
Formula: C17H25N3O5S
Exact mass: 383.1514919
SMILES: CC1C2C(C(=O)N2C(=C1SC3CC(NC3)C(=O)N(C)C)C(=O)O)C(C)O
InChI: InChI=1S/C17H25N3O5S/c1-7-12-11(8(2)21)16(23)20(12)13(17(24)25)14(7)26-9-5-10(18-6-9)15(22)19(3)4/h7-12,18,21H,5-6H2,1-4H3,(H,24,25)
Instrument: Exploris 240 Thermo Scientific
Instrument type: LC-ESI-QFT
Ms type: MS2
Ion mode: NEGATIVE
Ionization: ESI
Fragmentation mode: HCD
Collision energy: 45 % (nominal)
Resolution: 15000
Column name: XBridge C18 3.5um, 2.1x50mm, Waters
Retention time: 2.467 min
Base peak: 382.1443
Precursor m/z: 382.1442
Precursor type: [M-H]-
m/z	relative intensity	assigned
82.03	25	C4H4NO-
110.0196	72	C6H6S-
111.0149	104	C5H5NS-
112.0227	756	C5H6NS-
120.0456	93	C7H6NO-
125.0067	36	C6H5OS-
126.0145	999	C6H6OS-
127.0224	91	C6H7OS-
152.0303	350	C8H8OS-
153.0383	36	C8H9OS-
154.0332	796	C7H8NOS-
170.0408	491	C8H10O2S-
173.0755	526	C7H13N2OS-
180.0494	39	C9H10NOS-
197.0517	111	C9H11NO2S-
198.0596	128	C9H12NO2S-
