Mass spectrum: Triasulfuron; LC-ESI-QFT; MS2; CE: 15%; R=15000; [M+H]+
Name: Triasulfuron
Name: 1-[2-(2-chloroethoxy)phenyl]sulfonyl-3-(4-methoxy-6-methyl-1,3,5-triazin-2-yl)urea
Formula: C14H16ClN5O5S
Exact mass: 401.0560673
SMILES: CC1=NC(=NC(=N1)OC)NC(=O)NS(=O)(=O)C2=CC=CC=C2OCCCl
InChI: InChI=1S/C14H16ClN5O5S/c1-9-16-12(19-14(17-9)24-2)18-13(21)20-26(22,23)11-6-4-3-5-10(11)25-8-7-15/h3-6H,7-8H2,1-2H3,(H2,16,17,18,19,20,21)
Instrument: Exploris 240 Thermo Scientific
Instrument type: LC-ESI-QFT
Ms type: MS2
Ion mode: POSITIVE
Ionization: ESI
Fragmentation mode: HCD
Collision energy: 15 % (nominal)
Resolution: 15000
Column name: XBridge C18 3.5um, 2.1x50mm, Waters
Retention time: 5.566 min
Base peak: 402.063
Precursor m/z: 402.0633
Precursor type: [M+H]+
m/z	relative intensity	assigned
141.077	115	C5H9N4O+
167.0562	259	C6H7N4O2+
402.0632	999	C14H17ClN5O5S+
