Mass spectrum: Picloram; LC-ESI-QFT; MS2; CE: 150%; R=15000; [M+H]+
Name: Picloram
Name: 4-amino-3,5,6-trichloropyridine-2-carboxylic acid
Formula: C6H3Cl3N2O2
Exact mass: 239.9260104
SMILES: C1(=C(C(=NC(=C1Cl)Cl)C(=O)O)Cl)N
InChI: InChI=1S/C6H3Cl3N2O2/c7-1-3(10)2(8)5(9)11-4(1)6(12)13/h(H2,10,11)(H,12,13)
Instrument: Exploris 240 Thermo Scientific
Instrument type: LC-ESI-QFT
Ms type: MS2
Ion mode: POSITIVE
Ionization: ESI
Fragmentation mode: HCD
Collision energy: 150 % (nominal)
Resolution: 15000
Column name: XBridge C18 3.5um, 2.1x50mm, Waters
Retention time: 3.468 min
Base peak: 240.9333
Precursor m/z: 240.9333
Precursor type: [M+H]+
m/z	relative intensity	assigned
61.9791	33	CHClN+
64.0182	61	C4H2N+
71.9761	29	C3HCl+
73.9793	51	C2HClN+
74.9871	25	C2H2ClN+
82.945	181	CHCl2+
85.9794	37	C3HClN+
89.0135	38	C5HN2+
90.0214	63	C5H2N2+
96.9714	48	C4ClN+
97.9792	168	C4HClN+
98.9871	100	C4H2ClN+
105.9372	120	C3Cl2+
106.945	80	C3HCl2+
107.9404	173	C2Cl2N+
116.906	57	CCl3+
117.9373	11	C4Cl2+
124.9902	136	C5H2ClN2+
131.9403	135	C4Cl2N+
140.906	999	C3Cl3+
159.9589	83	C5H2Cl2N2+
167.9168	32	C4HCl3N+
