Mass spectrum: Nitrofurantoin; LC-ESI-QFT; MS2; CE: 90%; R=15000; [M+H]+
Name: Nitrofurantoin
Name: 1-[(5-Nitro-2-furanyl)methylideneamino]imidazolidine-2,4-dione
Name: 1-[(5-nitrofuran-2-yl)methylideneamino]imidazolidine-2,4-dione
Formula: C8H6N4O5
Exact mass: 238.0338193
SMILES: [O-][N+](=O)C1=CC=C(O1)C=NN1CC(=O)NC1=O
InChI: InChI=1S/C8H6N4O5/c13-6-4-11(8(14)10-6)9-3-5-1-2-7(17-5)12(15)16/h1-3H,4H2,(H,10,13,14)
Instrument: Q Exactive Plus
Instrument type: LC-ESI-QFT
Ms type: MS2
Ion mode: POSITIVE
Ionization: ESI
Fragmentation mode: HCD
Collision energy: 90 % (nominal)
Resolution: 15000
Column name: XBridge C18 3.5um, 2.1x50mm, Waters
Retention time: 3.220 min
Base peak: 164.9847
Precursor m/z: 239.0411
Precursor type: [M+H]+
Precursor intensity: 8988663.19
m/z	relative intensity	assigned
51.023	101	C4H3+
52.0182	51	C3H2N+
53.0022	86	C3HO+
54.0101	21	C3H2O+
54.0339	90	C3H4N+
55.0179	84	C3H3O+
56.0132	21	C2H2NO+
56.0495	25	C3H6N+
57.0209	12	C2H3NO+
64.0183	163	C4H2N+
65.0261	74	C4H3N+
65.0387	30	C5H5+
66.0214	52	C3H2N2+
66.0339	121	C4H4N+
67.0417	999	C4H5N+
68.0132	15	C3H2NO+
68.037	74	C3H4N2+
69.9925	21	C2NO2+
79.0179	154	C5H3O+
80.0132	96	C4H2NO+
81.0447	29	C4H5N2+
82.005	37	C4H2O2+
82.016	10	C3H2N2O+
83.0367	212	C4H5NO+
93.0086	33	C4HN2O+
93.0211	47	C5H3NO+
93.0449	298	C5H5N2+
94.0161	27	C4H2N2O+
94.0288	40	C5H4NO+
94.0527	44	C5H6N2+
95.0367	21	C5H5NO+
96.0081	42	C4H2NO2+
96.0319	31	C4H4N2O+
100.027	15	C3H4N2O2+
110.024	22	C5H4NO2+
121.0398	75	C6H5N2O+
122.0112	224	C5H2N2O2+
137.0346	30	C6H5N2O2+
