Mass spectrum: Zafirlukast; LC-ESI-QFT; MS2; CE: 120%; R=15000; [M-H]-
Name: Zafirlukast
Name: cyclopentyl N-[3-[[2-methoxy-4-[(2-methylphenyl)sulfonylcarbamoyl]phenyl]methyl]-1-methylindol-5-yl]carbamate
Formula: C31H33N3O6S
Exact mass: 575.2090068
SMILES: COC1=C(CC2=CN(C)C3=C2C=C(NC(=O)OC2CCCC2)C=C3)C=CC(=C1)C(=O)NS(=O)(=O)C1=CC=CC=C1C
InChI: InChI=1S/C31H33N3O6S/c1-20-8-4-7-11-29(20)41(37,38)33-30(35)22-13-12-21(28(17-22)39-3)16-23-19-34(2)27-15-14-24(18-26(23)27)32-31(36)40-25-9-5-6-10-25/h4,7-8,11-15,17-19,25H,5-6,9-10,16H2,1-3H3,(H,32,36)(H,33,35)
Instrument: Q Exactive Plus
Instrument type: LC-ESI-QFT
Ms type: MS2
Ion mode: NEGATIVE
Ionization: ESI
Fragmentation mode: HCD
Collision energy: 120 % (nominal)
Resolution: 15000
Column name: XBridge C18 3.5um, 2.1x50mm, Waters
Retention time: 12.471 min
Base peak: 574.2016
Precursor m/z: 574.2017
Precursor type: [M-H]-
Precursor intensity: 37802295.28
m/z	relative intensity	assigned
61.9705	365	NOS-
63.0239	31	C5H3-
63.9624	999	O2S-
65.0033	340	C4HO-
77.9656	94	NO2S-
78.9733	383	HNO2S-
79.9574	95	O3S-
79.9811	172	H2NO2S-
81.0345	39	C5H5O-
91.0189	140	C6H3O-
93.0348	20	C6H5O-
106.0663	18	C7H8N-
107.0503	299	C7H7O-
130.0534	17	C8H6N2-
159.0563	65	C9H7N2O-
185.0359	40	C10H5N2O2-
204.0691	111	C14H8N2-
205.0771	214	C14H9N2-
233.0713	17	C15H9N2O-
