Mass spectrum: Trimetazidine; LC-ESI-QFT; MS2; CE: 15%; R=15000; [M+H]+
Name: Trimetazidine
Name: 1-[(2,3,4-trimethoxyphenyl)methyl]piperazine
Formula: C14H22N2O3
Exact mass: 266.1630426
SMILES: COC1=C(C(=C(C=C1)CN2CCNCC2)OC)OC
InChI: InChI=1S/C14H22N2O3/c1-17-12-5-4-11(13(18-2)14(12)19-3)10-16-8-6-15-7-9-16/h4-5,15H,6-10H2,1-3H3
Instrument: Exploris 240 Thermo Scientific
Instrument type: LC-ESI-QFT
Ms type: MS2
Ion mode: POSITIVE
Ionization: ESI
Fragmentation mode: HCD
Collision energy: 15 % (nominal)
Resolution: 15000
Column name: XBridge C18 3.5um, 2.1x50mm, Waters
Retention time: 1.902 min
Base peak: 267.1699
Precursor m/z: 267.1703
Precursor type: [M+H]+
m/z	relative intensity	assigned
181.0857	732	C10H13O3+
267.1701	999	C14H23N2O3+
