Mass spectrum: Dichlorvos; LC-ESI-QFT; MS2; CE: 30%; R=15000; [M+H]+
Name: Dichlorvos
Name: 2,2-dichloroethenyl dimethyl phosphate
Formula: C4H7Cl2O4P
Exact mass: 219.9459007
SMILES: COP(=O)(OC)OC=C(Cl)Cl
InChI: InChI=1S/C4H7Cl2O4P/c1-8-11(7,9-2)10-3-4(5)6/h3H,1-2H3
Instrument: Q Exactive Plus
Instrument type: LC-ESI-QFT
Ms type: MS2
Ion mode: POSITIVE
Ionization: ESI
Fragmentation mode: HCD
Collision energy: 30 % (nominal)
Resolution: 15000
Column name: XBridge C18 3.5um, 2.1x50mm, Waters
Retention time: 6.096 min
Base peak: 220.9533
Precursor m/z: 220.9532
Precursor type: [M+H]+
Precursor intensity: 774016924.06
m/z	relative intensity	assigned
78.9944	12	CH4O2P+
127.0155	999	C2H8O4P+
144.9817	84	C2H7ClO3P+
220.9532	388	C4H8Cl2O4P+
