Mass spectrum: 5-Bromo-N-(4,5-dihydro-1H-imidazol-2-yl)-6-Quinoxalinamine; LC-ESI-QFT; MS2; CE: 90%; R=15000; [M+H]+
Name: 5-Bromo-N-(4,5-dihydro-1H-imidazol-2-yl)-6-Quinoxalinamine
Name: Brimonidine
Name: 5-bromo-N-(4,5-dihydro-1H-imidazol-2-yl)quinoxalin-6-amine
Formula: C11H10BrN5
Exact mass: 291.0119574
SMILES: C1CN=C(N1)NC2=C(C3=NC=CN=C3C=C2)Br
InChI: InChI=1S/C11H10BrN5/c12-9-7(17-11-15-5-6-16-11)1-2-8-10(9)14-4-3-13-8/h1-4H,5-6H2,(H2,15,16,17)
Instrument: Exploris 240 Thermo Scientific
Instrument type: LC-ESI-QFT
Ms type: MS2
Ion mode: POSITIVE
Ionization: ESI
Fragmentation mode: HCD
Collision energy: 90 % (nominal)
Resolution: 15000
Column name: XBridge C18 3.5um, 2.1x50mm, Waters
Retention time: 2.032 min
Base peak: 292.019
Precursor m/z: 292.0192
Precursor type: [M+H]+
m/z	relative intensity	assigned
128.0372	49	C8H4N2+
131.0601	78	C8H7N2+
142.0395	100	C8H4N3+
143.0476	94	C8H5N3+
143.0609	52	C9H7N2+
144.0558	118	C8H6N3+
156.0554	327	C9H6N3+
157.0509	43	C8H5N4+
158.071	187	C9H8N3+
159.0661	22	C8H7N4+
170.0585	127	C9H6N4+
171.0662	158	C9H7N4+
183.066	106	C10H7N4+
186.078	97	C9H8N5+
212.0929	999	C11H10N5+
248.9768	209	C9H6BrN4+
