Mass spectrum: tert-Butyl phenyl glycidyl ether; LC-ESI-QFT; MS2; CE: 30%; R=15000; [M+H]+
Name: tert-Butyl phenyl glycidyl ether
Name: p-tert-Butylphenyl glycidyl ether
Name: 2-[(4-tert-butylphenoxy)methyl]oxirane
Formula: C13H18O2
Exact mass: 206.1306798
SMILES: CC(C)(C)C1=CC=C(OCC2CO2)C=C1
InChI: InChI=1S/C13H18O2/c1-13(2,3)10-4-6-11(7-5-10)14-8-12-9-15-12/h4-7,12H,8-9H2,1-3H3
Instrument: Q Exactive Plus
Instrument type: LC-ESI-QFT
Ms type: MS2
Ion mode: POSITIVE
Ionization: ESI
Fragmentation mode: HCD
Collision energy: 30 % (nominal)
Resolution: 15000
Column name: XBridge C18 3.5um, 2.1x50mm, Waters
Retention time: 11.128 min
Base peak: 224.1645
Precursor m/z: 207.138
Precursor type: [M+H]+
Precursor intensity: 6069981.77
m/z	relative intensity	assigned
57.0699	840	C4H9+
107.0491	176	C7H7O+
121.0648	167	C8H9O+
133.0647	194	C9H9O+
163.1116	263	C11H15O+
177.1273	999	C12H17O+
