Mass spectrum: Paracetamol sulfate; LC-ESI-QFT; MS2; CE: 150%; R=17500; [M-H]-
Name: Paracetamol sulfate
Name: Acetaminophen sulfate
Name: (4-acetamidophenyl) hydrogen sulfate
Formula: C8H9NO5S
Exact mass: 231.0201434
SMILES: CC(=O)NC1=CC=C(C=C1)OS(=O)(=O)O
InChI: InChI=1S/C8H9NO5S/c1-6(10)9-7-2-4-8(5-3-7)14-15(11,12)13/h2-5H,1H3,(H,9,10)(H,11,12,13)
Instrument: Exploris 240 Orbitrap Thermo Scientific
Instrument type: LC-ESI-QFT
Ms type: MS2
Ion mode: NEGATIVE
Ionization: ESI
Fragmentation mode: HCD
Collision energy: 150 % (nominal)
Resolution: 17500
Column name: XBridge C18 3.5um, 2.1x50mm, Waters
Retention time: 1.614 min
Base peak: 230.0127
Precursor m/z: 230.0129
Precursor type: [M-H]-
m/z	relative intensity	assigned
78.0349	39	C5H4N-
79.9573	391	O3S-
92.027	40	C6H4O-
93.0346	40	C6H5O-
107.0377	999	C6H5NO-
118.0297	259	C7H4NO-
134.0246	40	C7H4NO2-
