Mass spectrum: Propyzamide; LC-ESI-QFT; MS2; CE: 60%; R=15000; [M+H]+
Name: Propyzamide
Name: 3,5-dichloro-N-(2-methylbut-3-yn-2-yl)benzamide
Formula: C12H11Cl2NO
Exact mass: 255.0217693
SMILES: CC(C)(NC(=O)C1=CC(Cl)=CC(Cl)=C1)C#C
InChI: InChI=1S/C12H11Cl2NO/c1-4-12(2,3)15-11(16)8-5-9(13)7-10(14)6-8/h1,5-7H,2-3H3,(H,15,16)
Instrument: Q Exactive Plus
Instrument type: LC-ESI-QFT
Ms type: MS2
Ion mode: POSITIVE
Ionization: ESI
Fragmentation mode: HCD
Collision energy: 60 % (nominal)
Resolution: 15000
Column name: XBridge C18 3.5um, 2.1x50mm, Waters
Retention time: 9.576 min
Base peak: 256.0291
Precursor m/z: 256.029
Precursor type: [M+H]+
Precursor intensity: 427532914.61
m/z	relative intensity	assigned
65.0386	91	C5H5+
67.0542	210	C5H7+
84.984	27	C4H2Cl+
120.9604	12	C4H3Cl2+
126.9945	23	C6H4ClO+
128.0024	28	C6H5ClO+
129.0101	11	C6H6ClO+
139.0053	14	C9HNO+
146.9764	73	C6H5Cl2+
162.9713	69	C6H5Cl2O+
171.9712	12	C10HClO+
172.9552	999	C7H3Cl2O+
172.9671	107	C9ClNO+
189.9821	196	C7H6Cl2NO+
