Mass spectrum: Chloridazon; LC-ESI-QFT; MS2; CE: 180%; R=15000; [M+H]+
Name: Chloridazon
Name: 5-amino-4-chloro-2-phenylpyridazin-3-one
Formula: C10H8ClN3O
Exact mass: 221.0355896
SMILES: NC1=C(Cl)C(=O)N(N=C1)C1=CC=CC=C1
InChI: InChI=1S/C10H8ClN3O/c11-9-8(12)6-13-14(10(9)15)7-4-2-1-3-5-7/h1-6H,12H2
Instrument: Q Exactive Plus
Instrument type: LC-ESI-QFT
Ms type: MS2
Ion mode: POSITIVE
Ionization: ESI
Fragmentation mode: HCD
Collision energy: 180 % (nominal)
Resolution: 15000
Column name: XBridge C18 3.5um, 2.1x50mm, Waters
Retention time: 4.559 min
Base peak: 222.043
Precursor m/z: 222.0429
Precursor type: [M+H]+
Precursor intensity: 516363769.41
m/z	relative intensity	assigned
50.0151	490	C4H2+
51.0229	999	C4H3+
52.0182	142	C3H2N+
53.0022	22	C3HO+
53.026	32	C3H3N+
53.0386	66	C4H5+
54.0339	18	C3H4N+
55.0291	48	C2H3N2+
60.9841	11	C2H2Cl+
62.9632	11	CClO+
63.023	35	C5H3+
63.9948	44	CH3ClN+
65.0386	416	C5H5+
66.0213	338	C3H2N2+
66.0464	50	C5H6+
72.984	20	C3H2Cl+
73.9792	51	C2HClN+
74.987	32	C2H2ClN+
75.0228	19	C6H3+
75.9949	20	C2H3ClN+
77.0385	139	C6H5+
87.9948	111	C3H3ClN+
89.0386	22	C7H5+
92.0496	24	C6H6N+
93.0574	37	C6H7N+
95.0492	201	C6H7O+
105.0448	57	C6H5N2+
