Mass spectrum: Ketotifen; LC-ESI-QFT; MS2; CE: 30%; R=15000; [M+H]+
Name: Ketotifen
Name: 2-(1-methylpiperidin-4-ylidene)-6-thiatricyclo[8.4.0.03,7]tetradeca-1(14),3(7),4,10,12-pentaen-8-one
Formula: C19H19NOS
Exact mass: 309.1187352
SMILES: CN1CCC(=C2C3=C(C(=O)CC4=CC=CC=C42)SC=C3)CC1
InChI: InChI=1S/C19H19NOS/c1-20-9-6-13(7-10-20)18-15-5-3-2-4-14(15)12-17(21)19-16(18)8-11-22-19/h2-5,8,11H,6-7,9-10,12H2,1H3
Instrument: Exploris 240 Thermo Scientific
Instrument type: LC-ESI-QFT
Ms type: MS2
Ion mode: POSITIVE
Ionization: ESI
Fragmentation mode: HCD
Collision energy: 30 % (nominal)
Resolution: 15000
Column name: XBridge C18 3.5um, 2.1x50mm, Waters
Retention time: 4.523 min
Base peak: 310.1256
Precursor m/z: 310.126
Precursor type: [M+H]+
m/z	relative intensity	assigned
58.0652	23	C3H8N+
68.0493	18	C4H6N+
70.0653	32	C4H8N+
79.054	13	C6H7+
81.0572	12	C5H7N+
82.0651	101	C5H8N+
94.0651	32	C6H8N+
96.0807	999	C6H10N+
97.0104	26	C5H5S+
97.0886	144	C6H11N+
98.0965	14	C6H12N+
111.0261	10	C6H7S+
117.07	11	C9H9+
123.0262	18	C7H7S+
141.0698	16	C11H9+
155.0855	18	C12H11+
197.0421	28	C13H9S+
202.0777	163	C16H10+
205.1005	35	C16H13+
213.0369	81	C13H9OS+
221.0423	21	C15H9S+
234.0492	29	C16H10S+
249.0732	15	C17H13S+
