Mass spectrum: SAmPAP; LC-ESI-QFT; MS2; CE: 30%; R=17500; [M-H]-
Name: SAmPAP
Name: 1-Octanesulfonamide, N-ethyl-1,1,2,2,3,3,4,4,5,5,6,6,7,7,8,8,8-heptadecafluoro-N-(2-(phosphonooxy)ethyl)-
Name: 2-[ethyl(1,1,2,2,3,3,4,4,5,5,6,6,7,7,8,8,8-heptadecafluorooctylsulfonyl)amino]ethyl dihydrogen phosphate
Formula: C12H11F17NO6PS
Exact mass: 650.977324442
SMILES: CCN(CCOP(=O)(O)O)S(=O)(=O)C(C(C(C(C(C(C(C(F)(F)F)(F)F)(F)F)(F)F)(F)F)(F)F)(F)F)(F)F
InChI: InChI=1S/C12H11F17NO6PS/c1-2-30(3-4-36-37(31,32)33)38(34,35)12(28,29)10(23,24)8(19,20)6(15,16)5(13,14)7(17,18)9(21,22)11(25,26)27/h2-4H2,1H3,(H2,31,32,33)
Instrument: Exploris 240 Orbitrap Thermo Scientific
Instrument type: LC-ESI-QFT
Ms type: MS2
Ion mode: NEGATIVE
Ionization: ESI
Fragmentation mode: HCD
Collision energy: 30 % (nominal)
Resolution: 17500
Column name: XBridge C18 3.5um, 2.1x50mm, Waters
Retention time: 12.964 min
Base peak: 311.1686
Precursor m/z: 649.97
Precursor type: [M-H]-
m/z	relative intensity	assigned
78.9591	889	O3P-
96.9696	999	H2O4P-
122.9855	817	C2H4O4P-
168.9897	423	C7H2F2NP-
