Mass spectrum: Fluralaner; LC-ESI-QFT; MS2; CE: 120%; R=17500; [M+H]+
Name: Fluralaner
Name: 4-[5-(3,5-dichlorophenyl)-5-(trifluoromethyl)-4H-1,2-oxazol-3-yl]-2-methyl-N-[2-oxo-2-(2,2,2-trifluoroethylamino)ethyl]benzamide
Formula: C22H17Cl2F6N3O3
Exact mass: 555.055116084
SMILES: CC1=C(C=CC(=C1)C2=NOC(C2)(C3=CC(=CC(=C3)Cl)Cl)C(F)(F)F)C(=O)NCC(=O)NCC(F)(F)F
InChI: InChI=1S/C22H17Cl2F6N3O3/c1-11-4-12(2-3-16(11)19(35)31-9-18(34)32-10-21(25,26)27)17-8-20(36-33-17,22(28,29)30)13-5-14(23)7-15(24)6-13/h2-7H,8-10H2,1H3,(H,31,35)(H,32,34)
Instrument: Exploris 240 Orbitrap Thermo Scientific
Instrument type: LC-ESI-QFT
Ms type: MS2
Ion mode: POSITIVE
Ionization: ESI
Fragmentation mode: HCD
Collision energy: 120 % (nominal)
Resolution: 17500
Column name: XBridge C18 3.5um, 2.1x50mm, Waters
Retention time: 13.351 min
Base peak: 556.0624
Precursor m/z: 556.0624
Precursor type: [M+H]+
m/z	relative intensity	assigned
63.023	76	C5H3+
65.0386	33	C5H5+
66.0465	15	C5H6+
74.0151	51	C6H2+
75.0229	76	C6H3+
76.0185	24	C5H2N+
76.0307	282	C6H4+
77.0386	893	C6H5+
78.0338	213	C5H4N+
86.9634	21	C3ClO+
88.031	28	C7H4+
89.0386	342	C7H5+
90.0464	121	C7H6+
91.0545	12	C7H7+
94.0416	15	C6H6O+
95.0492	319	C6H7O+
96.0442	51	C5H6NO+
102.0343	77	C7H4N+
102.0464	999	C8H6+
103.0416	23	C7H5N+
103.0543	71	C8H7+
104.0499	25	C7H6N+
105.0447	284	C6H5N2+
108.984	92	C6H2Cl+
114.0341	28	C8H4N+
115.0418	116	C8H5N+
115.0543	67	C4H6FN3+
130.0399	55	C7H4N3+
132.0444	194	C8H6NO+
189.0698	19	C15H9+
202.0783	164	C8H10F2N3O+
214.0652	31	C16H8N+
216.0811	22	C16H10N+
