Mass spectrum: Pyridate; LC-ESI-QFT; MS2; CE: 60%; R=15000; [M+H]+
Name: Pyridate
Name: (6-chloro-3-phenylpyridazin-4-yl) octylsulfanylformate
Formula: C19H23ClN2O2S
Exact mass: 378.1168767
SMILES: CCCCCCCCSC(=O)OC1=CC(Cl)=NN=C1C1=CC=CC=C1
InChI: InChI=1S/C19H23ClN2O2S/c1-2-3-4-5-6-10-13-25-19(23)24-16-14-17(20)21-22-18(16)15-11-8-7-9-12-15/h7-9,11-12,14H,2-6,10,13H2,1H3
Instrument: Q Exactive Plus
Instrument type: LC-ESI-QFT
Ms type: MS2
Ion mode: POSITIVE
Ionization: ESI
Fragmentation mode: HCD
Collision energy: 60 % (nominal)
Resolution: 15000
Column name: XBridge C18 3.5um, 2.1x50mm, Waters
Retention time: 16.445 min
Base peak: 379.1244
Precursor m/z: 379.1242
Precursor type: [M+H]+
Precursor intensity: 282888817.6
m/z	relative intensity	assigned
53.0386	33	C4H5+
55.0542	14	C4H7+
57.0699	177	C4H9+
61.9792	13	CHClN+
68.0131	173	C3H2NO+
69.0699	56	C5H9+
71.0855	75	C5H11+
77.0385	17	C6H5+
95.0492	99	C6H7O+
103.9898	46	C3H3ClNO+
104.0495	425	C7H6N+
105.0448	28	C6H5N2+
126.0464	17	C10H6+
143.0602	11	C9H7N2+
161.0154	22	C10H6Cl+
179.0371	51	C9H8ClN2+
207.032	999	C10H8ClN2O+
