Mass spectrum: Phenylephrine 3-O-sulfate; LC-ESI-QFT; MS2; CE: 60%; R=17500; [M+H]+
Name: Phenylephrine 3-O-sulfate
Name: [3-[1-hydroxy-2-(methylamino)ethyl]phenyl] hydrogen sulfate
Formula: C9H13NO5S
Exact mass: 247.0514435
SMILES: CNCC(C1=CC(=CC=C1)OS(=O)(=O)O)O
InChI: InChI=1S/C9H13NO5S/c1-10-6-9(11)7-3-2-4-8(5-7)15-16(12,13)14/h2-5,9-11H,6H2,1H3,(H,12,13,14)
Instrument: Exploris 240 Orbitrap Thermo Scientific
Instrument type: LC-ESI-QFT
Ms type: MS2
Ion mode: POSITIVE
Ionization: ESI
Fragmentation mode: HCD
Collision energy: 60 % (nominal)
Resolution: 17500
Column name: XBridge C18 3.5um, 2.1x50mm, Waters
Retention time: 1.038 min
Base peak: 144.9877
Precursor m/z: 248.0587
Precursor type: [M+H]+
m/z	relative intensity	assigned
57.0572	9	C3H7N+
81.0699	6	C6H9+
91.0542	115	C7H7+
107.0493	6	C7H7O+
109.0647	132	C7H9O+
117.0571	8	C8H7N+
119.0492	63	C8H7O+
121.0645	30	C8H9O+
122.0963	9	C8H12N+
132.0809	11	C9H10N+
135.0678	100	C8H9NO+
149.0834	5	C9H11NO+
150.0912	999	C9H12NO+
