Mass spectrum: 3-Hydroxymethylmefenamic acid; LC-ESI-QFT; MS2; CE: 90%; R=17500; [M+H]+
Name: 3-Hydroxymethylmefenamic acid
Name: 3-Hydroxymethyl Mefenamic Acid
Name: 2-[3-(hydroxymethyl)-2-methylanilino]benzoic acid
Formula: C15H15NO3
Exact mass: 257.1051933
SMILES: CC1=C(C=CC=C1NC2=CC=CC=C2C(=O)O)CO
InChI: InChI=1S/C15H15NO3/c1-10-11(9-17)5-4-8-13(10)16-14-7-3-2-6-12(14)15(18)19/h2-8,16-17H,9H2,1H3,(H,18,19)
Instrument: Exploris 240 Orbitrap Thermo Scientific
Instrument type: LC-ESI-QFT
Ms type: MS2
Ion mode: POSITIVE
Ionization: ESI
Fragmentation mode: HCD
Collision energy: 90 % (nominal)
Resolution: 17500
Column name: XBridge C18 3.5um, 2.1x50mm, Waters
Retention time: 8.513 min
Base peak: 258.1122
Precursor m/z: 258.1125
Precursor type: [M+H]+
m/z	relative intensity	assigned
77.0387	40	C6H5+
91.0539	83	C7H7+
105.0334	23	C7H5O+
116.05	24	C8H6N+
139.0544	21	C11H7+
152.0617	85	C12H8+
154.0657	28	C11H8N+
165.0702	72	C13H9+
166.0646	64	C12H8N+
167.0727	592	C12H9N+
168.0808	51	C12H10N+
178.0645	124	C13H8N+
179.0729	801	C13H9N+
180.0806	388	C13H10N+
182.0602	26	C12H8NO+
183.0685	34	C12H9NO+
191.0731	19	C14H9N+
192.0807	175	C14H10N+
193.0887	418	C14H11N+
194.0963	530	C14H12N+
195.0678	999	C13H9NO+
196.0758	106	C13H10NO+
204.0805	185	C15H10N+
206.0608	31	C14H8NO+
207.0678	65	C14H9NO+
208.0762	101	C14H10NO+
209.083	124	C14H11NO+
210.0913	526	C14H12NO+
220.0753	99	C15H10NO+
221.084	37	C15H11NO+
222.0913	154	C15H12NO+
