Mass spectrum: Diphenhydramine N-glucuronide; LC-ESI-QFT; MS2; CE: 150%; R=17500; [M+H]+
Name: Diphenhydramine N-glucuronide
Name: 6-[2-benzhydryloxyethyl(dimethyl)azaniumyl]-3,4,5-trihydroxyoxane-2-carboxylate
Formula: C23H29NO7
Exact mass: 431.1944023
SMILES: C[N+](C)(CCOC(C1=CC=CC=C1)C2=CC=CC=C2)C3C(C(C(C(O3)C(=O)[O-])O)O)O
InChI: InChI=1S/C23H29NO7/c1-24(2,22-19(27)17(25)18(26)21(31-22)23(28)29)13-14-30-20(15-9-5-3-6-10-15)16-11-7-4-8-12-16/h3-12,17-22,25-27H,13-14H2,1-2H3
Instrument: Exploris 240 Orbitrap Thermo Scientific
Instrument type: LC-ESI-QFT
Ms type: MS2
Ion mode: POSITIVE
Ionization: ESI
Fragmentation mode: HCD
Collision energy: 150 % (nominal)
Resolution: 17500
Column name: XBridge C18 3.5um, 2.1x50mm, Waters
Retention time: 5.862 min
Base peak: 432.2014
Precursor m/z: 432.2017
Precursor type: [M+H]+
m/z	relative intensity	assigned
55.0179	53	C3H3O+
57.0335	11	C3H5O+
63.0231	11	C5H3+
65.0385	36	C5H5+
68.9971	9	C3HO2+
71.0128	121	C3H3O2+
73.0284	25	C3H5O2+
78.0463	8	C6H6+
85.0285	9	C4H5O2+
89.0387	16	C7H5+
91.054	22	C7H7+
102.0462	27	C8H6+
115.0542	196	C9H7+
126.0465	18	C10H6+
127.0541	17	C10H7+
128.062	187	C10H8+
139.0546	55	C11H7+
141.07	82	C11H9+
150.0464	23	C12H6+
151.0545	66	C12H7+
152.0621	683	C12H8+
164.0623	95	C13H8+
165.0699	999	C13H9+
166.0777	38	C13H10+
169.0648	31	C12H9O+
