Mass spectrum: (E)-1-(2-Chloro-1,3-thiazol-5-yl methyl)-3-methyl-2-nitroguanidine; LC-ESI-QFT; MS2; CE: 75%; R=15000; [M+H]+
Name: (E)-1-(2-Chloro-1,3-thiazol-5-yl methyl)-3-methyl-2-nitroguanidine
Name: 1-[(2-chloro-1,3-thiazol-5-yl)methyl]-2-methyl-3-nitroguanidine
Formula: C6H8ClN5O2S
Exact mass: 249.0087232
SMILES: CN\C(NCC1=CN=C(Cl)S1)=N/[N+]([O-])=O
InChI: InChI=1S/C6H8ClN5O2S/c1-8-6(11-12(13)14)10-3-4-2-9-5(7)15-4/h2H,3H2,1H3,(H2,8,10,11)
Instrument: Q Exactive Plus
Instrument type: LC-ESI-QFT
Ms type: MS2
Ion mode: POSITIVE
Ionization: ESI
Fragmentation mode: HCD
Collision energy: 75 % (nominal)
Resolution: 15000
Column name: XBridge C18 3.5um, 2.1x50mm, Waters
Retention time: 4.165 min
Base peak: 250.016
Precursor m/z: 250.016
Precursor type: [M+H]+
Precursor intensity: 221153798.4
m/z	relative intensity	assigned
54.0338	74	C3H4N+
55.0416	12	C3H5N+
57.0447	91	C2H5N2+
58.995	13	C2H3S+
69.0447	51	C3H5N2+
70.995	344	C3H3S+
81.0448	12	C4H5N2+
83.0603	29	C4H7N2+
86.0059	167	C3H4NS+
87.9948	31	C3H3ClN+
96.0555	69	C4H6N3+
97.0396	12	C4H5N2O+
108.0557	19	C5H6N3+
110.0713	529	C5H8N3+
111.0791	351	C5H9N3+
113.0167	823	C4H5N2S+
119.9668	46	C3H3ClNS+
126.0118	23	C4H4N3S+
131.9669	999	C4H3ClNS+
132.9747	58	C4H4ClNS+
142.0434	39	C5H8N3S+
146.9779	57	C4H4ClN2S+
147.986	11	C4H5ClN2S+
153.0231	29	C5H5N4S+
167.0385	18	C6H7N4S+
169.054	95	C6H9N4S+
