Mass spectrum: Hymexazol; LC-ESI-QFT; MS2; CE: 75%; R=15000; [M+H]+
Name: Hymexazol
Name: 5-methyl-1,2-oxazol-3-one
Formula: C4H5NO2
Exact mass: 99.0320284
SMILES: CC1=CC(=O)NO1
InChI: InChI=1S/C4H5NO2/c1-3-2-4(6)5-7-3/h2H,1H3,(H,5,6)
Instrument: Exploris 240 Thermo Scientific
Instrument type: LC-ESI-QFT
Ms type: MS2
Ion mode: POSITIVE
Ionization: ESI
Fragmentation mode: HCD
Collision energy: 75 % (nominal)
Resolution: 15000
Column name: XBridge C18 3.5um, 2.1x50mm, Waters
Retention time: 2.158 min
Base peak: 100.0392
Precursor m/z: 100.0393
Precursor type: [M+H]+
m/z	relative intensity	assigned
43.0179	40	C2H3O+
44.0131	36	CH2NO+
44.0495	125	C2H6N+
45.0335	35	C2H5O+
54.0338	314	C3H4N+
55.0179	26	C3H3O+
56.0494	47	C3H6N+
72.0443	25	C3H6NO+
82.0288	24	C4H4NO+
100.0393	999	C4H6NO2+
