Mass spectrum: Edoxaban; LC-ESI-QFT; MS2; CE: 120%; R=15000; [M-H]-
Name: Edoxaban
Name: Edoxaban impurity 5
Name: N`-(5-chloranylpyridin-2-yl)-N-[(1S,2R,4S)-4-(dimethylcarbamoyl)-2-[(5-methyl-6,7-dihydro-4H-[1,3]thiazolo[5,4-c]pyridin-2-yl)carbonylamino]cyclohexyl]ethanediamide
Formula: C24H30ClN7O4S
Exact mass: 547.1768511
SMILES: CN1CCC2=C(C1)SC(=N2)C(=O)NC3CC(CCC3NC(=O)C(=O)NC4=NC=C(C=C4)Cl)C(=O)N(C)C
InChI: InChI=1S/C24H30ClN7O4S/c1-31(2)24(36)13-4-6-15(27-20(33)21(34)30-19-7-5-14(25)11-26-19)17(10-13)28-22(35)23-29-16-8-9-32(3)12-18(16)37-23/h5,7,11,13,15,17H,4,6,8-10,12H2,1-3H3,(H,27,33)(H,28,35)(H,26,30,34)
Instrument: Q Exactive
Instrument type: LC-ESI-QFT
Ms type: MS2
Ion mode: NEGATIVE
Ionization: ESI
Fragmentation mode: HCD
Collision energy: 120 % (nominal)
Resolution: 15000
Column name: XBridge C18 3.5um, 2.1x50mm, Waters
Retention time: 4.841 min
Base peak: 546.1698
Precursor m/z: 546.1696
Precursor type: [M-H]-
Precursor intensity: 44107096.62
m/z	relative intensity	assigned
56.9804	25	C2HS-
57.9756	34	CNS-
64.0192	999	C4H2N-
81.9757	186	C3NS-
91.0302	24	C5H3N2-
110.007	857	C5H4NS-
127.0068	118	C5H4ClN2-
135.0024	54	C6H3N2S-
137.0179	50	C6H5N2S-
