Mass spectrum: Chloridazon; LC-ESI-QFT; MS2; CE: 90%; R=15000; [M+H]+
Name: Chloridazon
Name: 5-amino-4-chloro-2-phenylpyridazin-3-one
Formula: C10H8ClN3O
Exact mass: 221.0355896
SMILES: NC1=C(Cl)C(=O)N(N=C1)C1=CC=CC=C1
InChI: InChI=1S/C10H8ClN3O/c11-9-8(12)6-13-14(10(9)15)7-4-2-1-3-5-7/h1-6H,12H2
Instrument: Q Exactive Plus
Instrument type: LC-ESI-QFT
Ms type: MS2
Ion mode: POSITIVE
Ionization: ESI
Fragmentation mode: HCD
Collision energy: 90 % (nominal)
Resolution: 15000
Column name: XBridge C18 3.5um, 2.1x50mm, Waters
Retention time: 4.559 min
Base peak: 222.043
Precursor m/z: 222.0429
Precursor type: [M+H]+
Precursor intensity: 516363769.41
m/z	relative intensity	assigned
50.0151	44	C4H2+
51.0229	93	C4H3+
52.0182	12	C3H2N+
53.0386	189	C4H5+
55.0291	109	C2H3N2+
63.9949	55	CH3ClN+
65.0386	999	C5H5+
66.0213	74	C3H2N2+
66.0463	10	C5H6+
67.0291	13	C3H3N2+
73.979	38	C2HClN+
74.9869	10	C2H2ClN+
75.9948	42	C2H3ClN+
77.0385	204	C6H5+
81.0334	19	C5H5O+
87.9949	162	C3H3ClN+
92.0495	623	C6H6N+
93.0573	134	C6H7N+
94.0651	113	C6H8N+
95.0491	665	C6H7O+
100.9901	206	C3H2ClN2+
101.9742	18	C3HClNO+
104.0495	309	C7H6N+
105.0447	191	C6H5N2+
114.0338	10	C8H4N+
116.9976	27	C4H4ClNO+
119.0602	13	C7H7N2+
122.9996	12	C7H4Cl+
128.985	97	C4H2ClN2O+
130.0651	66	C9H8N+
131.0602	22	C8H7N2+
132.0444	32	C8H6NO+
146.0116	164	C4H5ClN3O+
149.0156	14	C9H6Cl+
150.0106	29	C8H5ClN+
193.0286	20	C10H8ClNO+
222.0428	13	C10H9ClN3O+
