Mass spectrum: Fluometuron; LC-ESI-QFT; MS2; CE: 150%; R=15000; [M+H]+
Name: Fluometuron
Name: 1,1-dimethyl-3-[3-(trifluoromethyl)phenyl]urea
Formula: C10H11F3N2O
Exact mass: 232.0823476
SMILES: CN(C)C(=O)NC1=CC=CC(=C1)C(F)(F)F
InChI: InChI=1S/C10H11F3N2O/c1-15(2)9(16)14-8-5-3-4-7(6-8)10(11,12)13/h3-6H,1-2H3,(H,14,16)
Instrument: Q Exactive Plus
Instrument type: LC-ESI-QFT
Ms type: MS2
Ion mode: POSITIVE
Ionization: ESI
Fragmentation mode: HCD
Collision energy: 150 % (nominal)
Resolution: 15000
Column name: XBridge C18 3.5um, 2.1x50mm, Waters
Retention time: 7.101 min
Base peak: 233.0896
Precursor m/z: 233.0896
Precursor type: [M+H]+
Precursor intensity: 1062988004.97
m/z	relative intensity	assigned
51.0041	27	CHF2+
56.0131	269	C2H2NO+
57.0135	27	C3H2F+
63.0229	100	C5H3+
68.9947	26	CF3+
72.0444	999	C3H6NO+
74.0149	39	C6H2+
75.004	42	C3HF2+
75.0229	222	C6H3+
95.0292	38	C6H4F+
100.0182	34	C7H2N+
113.0398	80	C6H6FO+
123.0355	50	C6H4FN2+
125.0195	34	C7H3F2+
141.0258	44	C6H3F2N2+
145.0259	44	C7H4F3+
