Mass spectrum: Zafirlukast; LC-ESI-QFT; MS2; CE: 90%; R=15000; [M-H]-
Name: Zafirlukast
Name: cyclopentyl N-[3-[[2-methoxy-4-[(2-methylphenyl)sulfonylcarbamoyl]phenyl]methyl]-1-methylindol-5-yl]carbamate
Formula: C31H33N3O6S
Exact mass: 575.2090068
SMILES: COC1=C(CC2=CN(C)C3=C2C=C(NC(=O)OC2CCCC2)C=C3)C=CC(=C1)C(=O)NS(=O)(=O)C1=CC=CC=C1C
InChI: InChI=1S/C31H33N3O6S/c1-20-8-4-7-11-29(20)41(37,38)33-30(35)22-13-12-21(28(17-22)39-3)16-23-19-34(2)27-15-14-24(18-26(23)27)32-31(36)40-25-9-5-6-10-25/h4,7-8,11-15,17-19,25H,5-6,9-10,16H2,1-3H3,(H,32,36)(H,33,35)
Instrument: Q Exactive Plus
Instrument type: LC-ESI-QFT
Ms type: MS2
Ion mode: NEGATIVE
Ionization: ESI
Fragmentation mode: HCD
Collision energy: 90 % (nominal)
Resolution: 15000
Column name: XBridge C18 3.5um, 2.1x50mm, Waters
Retention time: 12.471 min
Base peak: 574.2016
Precursor m/z: 574.2017
Precursor type: [M-H]-
Precursor intensity: 37802295.28
m/z	relative intensity	assigned
61.9705	206	NOS-
63.024	19	C5H3-
63.9624	743	O2S-
65.0032	195	C4HO-
77.9656	56	NO2S-
78.9733	259	HNO2S-
79.9574	59	O3S-
79.9812	245	H2NO2S-
91.0189	429	C6H3O-
91.0553	68	C7H7-
102.035	30	C7H4N-
106.0423	76	C7H6O-
106.0663	222	C7H8N-
107.0503	999	C7H7O-
117.0458	41	C7H5N2-
118.0299	21	C7H4NO-
131.0613	78	C8H7N2-
157.0407	49	C9H5N2O-
159.0562	171	C9H7N2O-
170.028	498	C7H8NO2S-
171.0122	33	C7H7O3S-
185.0354	92	C10H5N2O2-
190.0669	24	C8H14O3S-
205.077	538	C14H9N2-
206.085	83	C14H10N2-
231.0561	207	C15H7N2O-
233.0718	245	C15H9N2O-
235.0876	268	C15H11N2O-
237.067	64	C14H9N2O2-
260.0822	118	C16H10N3O-
261.0667	79	C16H9N2O2-
