Mass spectrum: Nevirapine; LC-ESI-QFT; MS2; CE: 90%; R=17500; [M+H]+
Name: Nevirapine
Name: 2-cyclopropyl-7-methyl-2,4,9,15-tetrazatricyclo[9.4.0.03,8]pentadeca-1(11),3,5,7,12,14-hexaen-10-one
Formula: C15H14N4O
Exact mass: 266.1167611
SMILES: CC1=C2C(=NC=C1)N(C3=C(C=CC=N3)C(=O)N2)C4CC4
InChI: InChI=1S/C15H14N4O/c1-9-6-8-17-14-12(9)18-15(20)11-3-2-7-16-13(11)19(14)10-4-5-10/h2-3,6-8,10H,4-5H2,1H3,(H,18,20)
Instrument: Exploris 240 Orbitrap Thermo Scientific
Instrument type: LC-ESI-QFT
Ms type: MS2
Ion mode: POSITIVE
Ionization: ESI
Fragmentation mode: HCD
Collision energy: 90 % (nominal)
Resolution: 17500
Column name: XBridge C18 3.5um, 2.1x50mm, Waters
Retention time: 4.746 min
Base peak: 267.1236
Precursor m/z: 267.124
Precursor type: [M+H]+
m/z	relative intensity	assigned
53.0386	290	C4H5+
67.0416	59	C4H5N+
78.0338	183	C5H4N+
79.0418	73	C5H5N+
80.0494	999	C5H6N+
92.0496	41	C6H6N+
93.0447	64	C5H5N2+
94.0525	62	C5H6N2+
96.0445	37	C5H6NO+
105.0447	146	C6H5N2+
107.0604	385	C6H7N2+
108.0684	53	C6H8N2+
120.0553	22	C6H6N3+
121.0402	48	C6H5N2O+
131.0602	95	C8H7N2+
132.0682	34	C8H8N2+
134.0715	43	C7H8N3+
144.0688	46	C9H8N2+
155.0606	53	C10H7N2+
158.0709	65	C9H8N3+
159.056	40	C9H7N2O+
160.063	29	C9H8N2O+
161.0715	43	C9H9N2O+
170.0709	116	C10H8N3+
171.0794	76	C10H9N3+
182.0712	198	C11H8N3+
183.0798	90	C11H9N3+
184.0874	358	C11H10N3+
197.0821	595	C11H9N4+
198.0668	124	C11H8N3O+
198.0904	532	C11H10N4+
199.0977	37	C11H11N4+
209.0821	53	C12H9N4+
210.0672	132	C12H8N3O+
223.0976	90	C13H11N4+
225.0776	259	C12H9N4O+
226.0847	374	C12H10N4O+
227.0929	393	C12H11N4O+
237.0778	120	C13H9N4O+
251.093	213	C14H11N4O+
