Mass spectrum: Mefenpyr-diethyl; LC-ESI-QFT; MS2; CE: 180%; R=15000; [M+H]+
Name: Mefenpyr-diethyl
Name: diethyl 1-(2,4-dichlorophenyl)-5-methyl-4H-pyrazole-3,5-dicarboxylate
Formula: C16H18Cl2N2O4
Exact mass: 372.0643624
SMILES: CCOC(=O)C1=NN(C2=C(Cl)C=C(Cl)C=C2)C(C)(C1)C(=O)OCC
InChI: InChI=1S/C16H18Cl2N2O4/c1-4-23-14(21)12-9-16(3,15(22)24-5-2)20(19-12)13-7-6-10(17)8-11(13)18/h6-8H,4-5,9H2,1-3H3
Instrument: Q Exactive Plus
Instrument type: LC-ESI-QFT
Ms type: MS2
Ion mode: POSITIVE
Ionization: ESI
Fragmentation mode: HCD
Collision energy: 180 % (nominal)
Resolution: 15000
Column name: XBridge C18 3.5um, 2.1x50mm, Waters
Retention time: 11.907 min
Base peak: 373.0719
Precursor m/z: 373.0716
Precursor type: [M+H]+
Precursor intensity: 306650994.19
m/z	relative intensity	assigned
50.0152	20	C4H2+
51.0229	15	C4H3+
61.0073	31	C5H+
62.0151	67	C5H2+
63.0229	159	C5H3+
72.9839	352	C3H2Cl+
74.0151	999	C6H2+
75.0229	168	C6H3+
82.945	267	CHCl2+
83.9763	20	C4HCl+
84.984	21	C4H2Cl+
86.9632	11	C3ClO+
88.0183	19	C6H2N+
89.0386	19	C7H5+
90.0339	19	C6H4N+
95.0492	12	C6H7O+
96.984	44	C5H2Cl+
99.023	12	C8H3+
100.018	22	C7H2N+
106.945	51	C3HCl2+
108.984	190	C6H2Cl+
109.992	12	C6H3Cl+
132.9606	48	C5H3Cl2+
