Mass spectrum: PFOPA; LC-ESI-QFT; MS2; CE: 60%; R=17500; [M-H]-
Name: PFOPA
Name: (Heptadecafluorooctyl)phosphonic acid
Name: 1,1,2,2,3,3,4,4,5,5,6,6,7,7,8,8,8-heptadecafluorooctylphosphonic acid
Formula: C8H2F17O3P
Exact mass: 499.947010294
SMILES: C(C(C(C(C(F)(F)P(=O)(O)O)(F)F)(F)F)(F)F)(C(C(C(F)(F)F)(F)F)(F)F)(F)F
InChI: InChI=1S/C8H2F17O3P/c9-1(10,3(13,14)5(17,18)7(21,22)23)2(11,12)4(15,16)6(19,20)8(24,25)29(26,27)28/h(H2,26,27,28)
Instrument: Exploris 240 Orbitrap Thermo Scientific
Instrument type: LC-ESI-QFT
Ms type: MS2
Ion mode: NEGATIVE
Ionization: ESI
Fragmentation mode: HCD
Collision energy: 60 % (nominal)
Resolution: 17500
Column name: XBridge C18 3.5um, 2.1x50mm, Waters
Retention time: 10.146 min
Base peak: 498.94
Precursor m/z: 498.9397
Precursor type: [M-H]-
m/z	relative intensity	assigned
78.959	999	O3P-
