Mass spectrum: Butachlor; LC-ESI-QFT; MS2; CE: 75%; R=15000; [M+H]+
Name: Butachlor
Name: N-(butoxymethyl)-2-chloro-N-(2,6-diethylphenyl)acetamide
Formula: C17H26ClNO2
Exact mass: 311.1652068
SMILES: CCCCOCN(C1=C(C=CC=C1CC)CC)C(=O)CCl
InChI: InChI=1S/C17H26ClNO2/c1-4-7-11-21-13-19(16(20)12-18)17-14(5-2)9-8-10-15(17)6-3/h8-10H,4-7,11-13H2,1-3H3
Instrument: Q Exactive Plus
Instrument type: LC-ESI-QFT
Ms type: MS2
Ion mode: POSITIVE
Ionization: ESI
Fragmentation mode: HCD
Collision energy: 75 % (nominal)
Resolution: 15000
Column name: XBridge C18 3.5um, 2.1x50mm, Waters
Retention time: 13.975 min
Base peak: 238.0992
Precursor m/z: 312.1725
Precursor type: [M+H]+
Precursor intensity: 52298997.27
m/z	relative intensity	assigned
57.0698	999	C4H9+
76.9787	32	C2H2ClO+
90.0105	121	C3H5ClN+
94.065	23	C6H8N+
130.0652	29	C9H8N+
132.0807	333	C9H10N+
134.0965	40	C9H12N+
146.0963	98	C10H12N+
147.1042	563	C10H13N+
162.1276	152	C11H16N+
