Mass spectrum: Metconazole; LC-ESI-QFT; MS2; CE: 180%; R=15000; [M+H]+
Name: Metconazole
Name: 5-[(4-chlorophenyl)methyl]-2,2-dimethyl-1-(1,2,4-triazol-1-ylmethyl)cyclopentan-1-ol
Formula: C17H22ClN3O
Exact mass: 319.14514
SMILES: CC1(C)CCC(CC2=CC=C(Cl)C=C2)C1(O)CN1C=NC=N1
InChI: InChI=1S/C17H22ClN3O/c1-16(2)8-7-14(9-13-3-5-15(18)6-4-13)17(16,22)10-21-12-19-11-20-21/h3-6,11-12,14,22H,7-10H2,1-2H3
Instrument: Q Exactive Plus
Instrument type: LC-ESI-QFT
Ms type: MS2
Ion mode: POSITIVE
Ionization: ESI
Fragmentation mode: HCD
Collision energy: 180 % (nominal)
Resolution: 15000
Column name: XBridge C18 3.5um, 2.1x50mm, Waters
Retention time: 12.152 min
Base peak: 320.1526
Precursor m/z: 320.1524
Precursor type: [M+H]+
Precursor intensity: 865316371.09
m/z	relative intensity	assigned
63.0229	206	C5H3+
65.0386	30	C5H5+
70.04	999	C2H4N3+
72.984	132	C3H2Cl+
89.0386	285	C7H5+
90.0464	57	C7H6+
98.9996	102	C5H4Cl+
115.0542	71	C9H7+
125.0151	24	C7H6Cl+
128.0624	15	C10H8+
