Mass spectrum: 4-(Methylthio)benzaldehyde; LC-ESI-QFT; MS2; CE: 150%; R=15000; [M+H]+
Name: 4-(Methylthio)benzaldehyde
Name: 4-methylsulfanylbenzaldehyde
Formula: C8H8OS
Exact mass: 152.0295859
SMILES: CSC1=CC=C(C=O)C=C1
InChI: InChI=1S/C8H8OS/c1-10-8-4-2-7(6-9)3-5-8/h2-6H,1H3
Instrument: Exploris 240 Thermo Scientific
Instrument type: LC-ESI-QFT
Ms type: MS2
Ion mode: POSITIVE
Ionization: ESI
Fragmentation mode: HCD
Collision energy: 150 % (nominal)
Resolution: 15000
Column name: XBridge C18 3.5um, 2.1x50mm, Waters
Retention time: 6.327 min
Base peak: 132.9581
Precursor m/z: 153.0369
Precursor type: [M+H]+
m/z	relative intensity	assigned
44.9793	61	CHS+
51.0229	485	C4H3+
52.0307	80	C4H4+
53.0386	54	C4H5+
65.0386	999	C5H5+
66.0464	932	C5H6+
68.9793	187	C3HS+
77.0385	202	C6H5+
78.0464	460	C6H6+
84.0029	90	C4H4S+
91.0543	47	C7H7+
95.0491	330	C6H7O+
109.0106	526	C6H5S+
110.0184	257	C6H6S+
