Mass spectrum: Ethyl 2-cyano-3,3-diphenylacrylate; LC-ESI-QFT; MS2; CE: 120%; R=15000; [M+H]+
Name: Ethyl 2-cyano-3,3-diphenylacrylate
Name: ethyl 2-cyano-3,3-diphenylprop-2-enoate
Formula: C18H15NO2
Exact mass: 277.1102787
SMILES: CCOC(=O)C(C#N)=C(C1=CC=CC=C1)C1=CC=CC=C1
InChI: InChI=1S/C18H15NO2/c1-2-21-18(20)16(13-19)17(14-9-5-3-6-10-14)15-11-7-4-8-12-15/h3-12H,2H2,1H3
Instrument: Exploris 240 Thermo Scientific
Instrument type: LC-ESI-QFT
Ms type: MS2
Ion mode: POSITIVE
Ionization: ESI
Fragmentation mode: HCD
Collision energy: 120 % (nominal)
Resolution: 15000
Column name: XBridge C18 3.5um, 2.1x50mm, Waters
Retention time: 9.995 min
Base peak: 278.1172
Precursor m/z: 278.1176
Precursor type: [M+H]+
m/z	relative intensity	assigned
51.0229	118	C4H3+
53.0386	141	C4H5+
75.0229	63	C6H3+
77.0385	209	C6H5+
95.049	560	C6H7O+
104.0493	122	C7H6N+
105.0337	101	C7H5O+
128.0495	29	C9H6N+
129.0336	52	C9H5O+
150.0463	48	C12H6+
151.0541	72	C12H7+
152.0619	128	C12H8+
169.0646	414	C12H9O+
176.062	999	C14H8+
178.0778	169	C14H10+
201.0572	72	C15H7N+
203.0724	525	C15H9N+
220.0755	106	C15H10NO+
