Mass spectrum: Theophylline; LC-ESI-QFT; MS2; CE: 120%; R=17500; [M+H]+
Name: Theophylline
Name: 1,3-dimethyl-7H-purine-2,6-dione
Formula: C7H8N4O2
Exact mass: 180.0647255
SMILES: CN1C2=C(C(=O)N(C1=O)C)NC=N2
InChI: InChI=1S/C7H8N4O2/c1-10-5-4(8-3-9-5)6(12)11(2)7(10)13/h3H,1-2H3,(H,8,9)
Instrument: Exploris 240 Orbitrap Thermo Scientific
Instrument type: LC-ESI-QFT
Ms type: MS2
Ion mode: POSITIVE
Ionization: ESI
Fragmentation mode: HCD
Collision energy: 120 % (nominal)
Resolution: 17500
Column name: XBridge C18 3.5um, 2.1x50mm, Waters
Retention time: 2.618 min
Base peak: 181.0718
Precursor m/z: 181.072
Precursor type: [M+H]+
m/z	relative intensity	assigned
42.0338	981	C2H4N+
54.0213	37	C2H2N2+
55.029	43	C2H3N2+
67.0293	64	C3H3N2+
68.037	31	C3H4N2+
69.0447	999	C3H5N2+
81.0448	23	C4H5N2+
83.024	26	C3H3N2O+
95.0241	37	C4H3N2O+
96.0556	219	C4H6N3+
109.027	150	C4H3N3O+
124.0505	139	C5H6N3O+
