Mass spectrum: Fenbuconazole; LC-ESI-QFT; MS2; CE: 180%; R=15000; [M+H]+
Name: Fenbuconazole
Name: 4-(4-chlorophenyl)-2-phenyl-2-(1,2,4-triazol-1-ylmethyl)butanenitrile
Formula: C19H17ClN4
Exact mass: 336.1141742
SMILES: C1=CC=C(C=C1)C(CCC2=CC=C(C=C2)Cl)(CN3C=NC=N3)C#N
InChI: InChI=1S/C19H17ClN4/c20-18-8-6-16(7-9-18)10-11-19(12-21,13-24-15-22-14-23-24)17-4-2-1-3-5-17/h1-9,14-15H,10-11,13H2
Instrument: Exploris 240 Thermo Scientific
Instrument type: LC-ESI-QFT
Ms type: MS2
Ion mode: POSITIVE
Ionization: ESI
Fragmentation mode: HCD
Collision energy: 180 % (nominal)
Resolution: 15000
Column name: XBridge C18 3.5um, 2.1x50mm, Waters
Retention time: 10.622 min
Base peak: 337.1211
Precursor m/z: 337.1215
Precursor type: [M+H]+
m/z	relative intensity	assigned
51.0229	211	C4H3+
62.0152	62	C5H2+
63.0229	635	C5H3+
65.0385	207	C5H5+
70.0399	508	C2H4N3+
72.9839	454	C3H2Cl+
77.0386	156	C6H5+
78.0463	72	C6H6+
82.04	37	C3H4N3+
89.0385	999	C7H5+
90.0463	278	C7H6+
91.0541	70	C7H7+
98.9995	413	C5H4Cl+
125.0151	110	C7H6Cl+
