Mass spectrum: Bromfenac; LC-ESI-QFT; MS2; CE: 40%; R=15000; [M+H]+
Name: Bromfenac
Name: 2-[2-azanyl-3-(4-bromophenyl)carbonyl-phenyl]ethanoic acid
Formula: C15H12BrNO3
Exact mass: 333.0000553
SMILES: C1=CC(=C(C(=C1)C(=O)C2=CC=C(C=C2)Br)N)CC(=O)O
InChI: InChI=1S/C15H12BrNO3/c16-11-6-4-9(5-7-11)15(20)12-3-1-2-10(14(12)17)8-13(18)19/h1-7H,8,17H2,(H,18,19)
Instrument: Exploris 240 Thermo Scientific
Instrument type: LC-ESI-QFT
Ms type: MS2
Ion mode: POSITIVE
Ionization: ESI
Fragmentation mode: HCD
Collision energy: 40 % (nominal)
Resolution: 15000
Column name: XBridge C18 3.5um, 2.1x50mm, Waters
Retention time: 9.875 min
Base peak: 334.007
Precursor m/z: 334.0073
Precursor type: [M+H]+
m/z	relative intensity	assigned
95.0491	61	C6H7O+
104.0494	478	C7H6N+
132.0443	999	C8H6NO+
150.0549	311	C8H8NO2+
172.9597	24	C6H6BrO+
180.0807	596	C13H10N+
181.0884	152	C13H11N+
182.9441	149	C7H4BrO+
208.0756	392	C14H10NO+
209.0834	579	C14H11NO+
286.9945	48	C14H10BrNO+
288.0018	283	C14H11BrNO+
