Mass spectrum: tert-Butyl phenyl glycidyl ether; LC-ESI-QFT; MS2; CE: 75%; R=15000; [M+H]+
Name: tert-Butyl phenyl glycidyl ether
Name: p-tert-Butylphenyl glycidyl ether
Name: 2-[(4-tert-butylphenoxy)methyl]oxirane
Formula: C13H18O2
Exact mass: 206.1306798
SMILES: CC(C)(C)C1=CC=C(OCC2CO2)C=C1
InChI: InChI=1S/C13H18O2/c1-13(2,3)10-4-6-11(7-5-10)14-8-12-9-15-12/h4-7,12H,8-9H2,1-3H3
Instrument: Q Exactive Plus
Instrument type: LC-ESI-QFT
Ms type: MS2
Ion mode: POSITIVE
Ionization: ESI
Fragmentation mode: HCD
Collision energy: 75 % (nominal)
Resolution: 15000
Column name: XBridge C18 3.5um, 2.1x50mm, Waters
Retention time: 11.128 min
Base peak: 224.1645
Precursor m/z: 207.138
Precursor type: [M+H]+
Precursor intensity: 6069981.77
m/z	relative intensity	assigned
57.0699	999	C4H9+
79.0542	151	C6H7+
91.0542	415	C7H7+
93.0698	68	C7H9+
95.0491	114	C6H7O+
103.0543	71	C8H7+
105.0699	568	C8H9+
107.0491	148	C7H7O+
107.0854	30	C8H11+
115.0542	41	C9H7+
117.0696	45	C9H9+
119.0855	113	C9H11+
121.065	57	C8H9O+
123.0804	142	C8H11O+
129.0698	119	C10H9+
133.0648	66	C9H9O+
135.0805	64	C9H11O+
144.0935	100	C11H12+
148.0879	74	C10H12O+
163.1114	72	C11H15O+
