Mass spectrum: Torasemidecarboxylic acid; LC-ESI-QFT; MS2; CE: 90%; R=17500; [M+H]+
Name: Torasemidecarboxylic acid
Name: Torsemide Carboxylic Acid
Name: 3-[[3-(propan-2-ylcarbamoylsulfamoyl)pyridin-4-yl]amino]benzoic acid
Formula: C16H18N4O5S
Exact mass: 378.0997907
SMILES: CC(C)NC(=O)NS(=O)(=O)C1=C(C=CN=C1)NC2=CC=CC(=C2)C(=O)O
InChI: InChI=1S/C16H18N4O5S/c1-10(2)18-16(23)20-26(24,25)14-9-17-7-6-13(14)19-12-5-3-4-11(8-12)15(21)22/h3-10H,1-2H3,(H,17,19)(H,21,22)(H2,18,20,23)
Instrument: Exploris 240 Orbitrap Thermo Scientific
Instrument type: LC-ESI-QFT
Ms type: MS2
Ion mode: POSITIVE
Ionization: ESI
Fragmentation mode: HCD
Collision energy: 90 % (nominal)
Resolution: 17500
Column name: XBridge C18 3.5um, 2.1x50mm, Waters
Retention time: 4.459 min
Base peak: 379.1067
Precursor m/z: 379.1071
Precursor type: [M+H]+
m/z	relative intensity	assigned
65.0386	23	C5H5+
67.0418	16	C4H5N+
81.0449	19	C4H5N2+
98.006	23	C4H4NS+
115.0542	864	C9H7+
116.0493	60	C8H6N+
117.0573	25	C8H7N+
125.0166	26	C5H5N2S+
128.0496	19	C9H6N+
130.0655	12	C9H8N+
137.017	12	C6H5N2S+
140.0494	240	C10H6N+
141.0574	51	C10H7N+
142.0652	208	C10H8N+
143.0609	25	C9H7N2+
148.0222	13	C8H6NS+
155.0606	34	C10H7N2+
167.0604	560	C11H7N2+
168.0682	748	C11H8N2+
169.076	999	C11H9N2+
171.0559	23	C10H7N2O+
175.032	67	C9H7N2S+
183.0555	125	C5H13NO4S+
184.0629	24	C11H8N2O+
187.0321	63	C10H7N2S+
203.0281	24	C10H7N2OS+
212.059	16	C12H8N2O2+
213.066	213	C12H9N2O2+
228.0537	29	C12H8N2O3+
229.0614	30	C12H9N2O3+
