Mass spectrum: Isavuconazole; LC-ESI-QFT; MS2; CE: 60%; R=15000; [M+H]+
Name: Isavuconazole
Name: 4-[2-[(2R,3R)-3-[2,5-bis(fluoranyl)phenyl]-3-oxidanyl-4-(1,2,4-triazol-1-yl)butan-2-yl]-1,3-thiazol-4-yl]benzenecarbonitrile
Name: 4-[2-[3-(2,5-difluorophenyl)-3-hydroxy-4-(1,2,4-triazol-1-yl)butan-2-yl]-1,3-thiazol-4-yl]benzonitrile
Formula: C22H17F2N5OS
Exact mass: 437.1121876
SMILES: CC(C1=NC(=CS1)C2=CC=C(C=C2)C#N)C(CN3C=NC=N3)(C4=C(C=CC(=C4)F)F)O
InChI: InChI=1S/C22H17F2N5OS/c1-14(21-28-20(10-31-21)16-4-2-15(9-25)3-5-16)22(30,11-29-13-26-12-27-29)18-8-17(23)6-7-19(18)24/h2-8,10,12-14,30H,11H2,1H3
Instrument: Exploris 240 Thermo Scientific
Instrument type: LC-ESI-QFT
Ms type: MS2
Ion mode: POSITIVE
Ionization: ESI
Fragmentation mode: HCD
Collision energy: 60 % (nominal)
Resolution: 15000
Column name: XBridge C18 3.5um, 2.1x50mm, Waters
Retention time: 10.216 min
Base peak: 438.1191
Precursor m/z: 438.1195
Precursor type: [M+H]+
m/z	relative intensity	assigned
54.0338	11	C3H4N+
57.0135	24	C3H2F+
70.04	150	C2H4N3+
77.0197	34	C3H3F2+
77.0385	13	C6H5+
82.04	126	C3H4N3+
83.048	19	C3H5N3+
89.0385	112	C7H5+
95.049	26	C6H7O+
101.0198	254	C5H3F2+
107.0292	204	C7H4F+
116.0494	321	C8H6N+
127.0353	999	C7H5F2+
133.0107	35	C8H5S+
141.0261	15	C6H3F2N2+
159.0136	90	C9H5NS+
160.0214	88	C9H6NS+
161.0169	32	C8H5N2S+
172.0217	22	C10H6NS+
202.0777	155	C16H10+
213.0481	48	C12H9N2S+
