Mass spectrum: Azithromycin-13-O-descladinosyl-6-N-desmethyl; LC-ESI-QFT; MS2; CE: 45%; R=17500; [M+H]+
Name: Azithromycin-13-O-descladinosyl-6-N-desmethyl
Name: Descladinose 6-N-Desmethyl Azithromycin
Name: 11-[4-(dimethylamino)-3-hydroxy-6-methyloxan-2-yl]oxy-2-ethyl-3,4,10,13-tetrahydroxy-3,5,8,10,12,14-hexamethyl-1-oxa-6-azacyclopentadecan-15-one
Formula: C29H56N2O9
Exact mass: 576.3985814
SMILES: CCC1C(C(C(NCC(CC(C(C(C(C(C(=O)O1)C)O)C)OC2C(C(CC(O2)C)N(C)C)O)(C)O)C)C)O)(C)O
InChI: InChI=1S/C29H56N2O9/c1-11-21-29(8,37)24(34)19(6)30-14-15(2)13-28(7,36)25(17(4)22(32)18(5)26(35)39-21)40-27-23(33)20(31(9)10)12-16(3)38-27/h15-25,27,30,32-34,36-37H,11-14H2,1-10H3
Instrument: Exploris 240 Orbitrap Thermo Scientific
Instrument type: LC-ESI-QFT
Ms type: MS2
Ion mode: POSITIVE
Ionization: ESI
Fragmentation mode: HCD
Collision energy: 45 % (nominal)
Resolution: 17500
Column name: XBridge C18 3.5um, 2.1x50mm, Waters
Retention time: 3.480 min
Base peak: 289.2063
Precursor m/z: 577.4059
Precursor type: [M+H]+
m/z	relative intensity	assigned
72.0807	496	C4H10N+
87.0441	87	C4H7O2+
88.0758	89	C4H10NO+
98.0963	454	C6H12N+
113.0597	143	C6H9O2+
116.0706	559	C5H10NO2+
116.1069	999	C6H14NO+
158.1175	991	C8H16NO2+
172.133	148	C9H18NO2+
