Mass spectrum: Sacubitrilat; LC-ESI-QFT; MS2; CE: 90%; R=17500; [M+H]+
Name: Sacubitrilat
Name: (2R,4S)-4-(3-carboxypropanoylamino)-2-methyl-5-(4-phenylphenyl)pentanoic Acid
Name: 4-(3-carboxypropanoylamino)-2-methyl-5-(4-phenylphenyl)pentanoic acid
Name: LBQ657
Formula: C22H25NO5
Exact mass: 383.1732729
SMILES: CC(CC(CC1=CC=C(C=C1)C2=CC=CC=C2)NC(=O)CCC(=O)O)C(=O)O
InChI: InChI=1S/C22H25NO5/c1-15(22(27)28)13-19(23-20(24)11-12-21(25)26)14-16-7-9-18(10-8-16)17-5-3-2-4-6-17/h2-10,15,19H,11-14H2,1H3,(H,23,24)(H,25,26)(H,27,28)
Instrument: Exploris 240 Orbitrap Thermo Scientific
Instrument type: LC-ESI-QFT
Ms type: MS2
Ion mode: POSITIVE
Ionization: ESI
Fragmentation mode: HCD
Collision energy: 90 % (nominal)
Resolution: 17500
Column name: XBridge C18 3.5um, 2.1x50mm, Waters
Retention time: 9.223 min
Base peak: 384.1802
Precursor m/z: 384.1805
Precursor type: [M+H]+
m/z	relative intensity	assigned
55.0179	50	C3H3O+
55.0542	8	C4H7+
67.0543	4	C5H7+
69.0336	6	C4H5O+
69.0699	18	C5H9+
70.0652	12	C4H8N+
72.0445	24	C3H6NO+
73.0284	49	C3H5O2+
91.0544	24	C7H7+
98.0601	30	C5H8NO+
100.0392	11	C4H6NO2+
101.0233	12	C4H5O3+
115.0541	30	C9H7+
128.0619	7	C10H8+
152.0622	45	C12H8+
165.0699	298	C13H9+
166.0776	22	C13H10+
167.0856	232	C13H11+
176.0624	8	C14H8+
177.0697	27	C14H9+
178.0777	999	C14H10+
179.0855	62	C14H11+
191.0856	39	C15H11+
192.0936	28	C15H12+
193.1019	79	C15H13+
206.109	6	C16H14+
