Mass spectrum: (E)-1-(2-Chloro-1,3-thiazol-5-yl methyl)-3-methyl-2-nitroguanidine; LC-ESI-QFT; MS2; CE: 30%; R=15000; [M+H]+
Name: (E)-1-(2-Chloro-1,3-thiazol-5-yl methyl)-3-methyl-2-nitroguanidine
Name: 1-[(2-chloro-1,3-thiazol-5-yl)methyl]-2-methyl-3-nitroguanidine
Formula: C6H8ClN5O2S
Exact mass: 249.0087232
SMILES: CN\C(NCC1=CN=C(Cl)S1)=N/[N+]([O-])=O
InChI: InChI=1S/C6H8ClN5O2S/c1-8-6(11-12(13)14)10-3-4-2-9-5(7)15-4/h2H,3H2,1H3,(H2,8,10,11)
Instrument: Q Exactive Plus
Instrument type: LC-ESI-QFT
Ms type: MS2
Ion mode: POSITIVE
Ionization: ESI
Fragmentation mode: HCD
Collision energy: 30 % (nominal)
Resolution: 15000
Column name: XBridge C18 3.5um, 2.1x50mm, Waters
Retention time: 4.165 min
Base peak: 250.016
Precursor m/z: 250.016
Precursor type: [M+H]+
Precursor intensity: 221153798.4
m/z	relative intensity	assigned
86.0058	16	C3H4NS+
110.0713	59	C5H8N3+
113.0167	131	C4H5N2S+
131.9669	922	C4H3ClNS+
146.9781	22	C4H4ClN2S+
147.9859	13	C4H5ClN2S+
168.0463	247	C6H8N4S+
169.0541	999	C6H9N4S+
172.9804	16	C5H4ClN3S+
174.9728	34	C5H4ClN2OS+
204.023	20	C6H9ClN4S+
206.0156	17	C6H9ClN3OS+
