Mass spectrum: Indoxacarb; LC-ESI-QFT; MS2; CE: 180%; R=15000; [M+H]+
Name: Indoxacarb
Name: methyl (4aS)-7-chloro-2-[methoxycarbonyl-[4-(trifluoromethoxy)phenyl]carbamoyl]-3,5-dihydroindeno[1,2-e][1,3,4]oxadiazine-4a-carboxylate
Formula: C22H17ClF3N3O7
Exact mass: 527.0707122
SMILES: COC(=O)N(C(=O)N1CO[C@]2(CC3=C(C=CC(Cl)=C3)C2=N1)C(=O)OC)C1=CC=C(OC(F)(F)F)C=C1
InChI: InChI=1S/C22H17ClF3N3O7/c1-33-18(30)21-10-12-9-13(23)3-8-16(12)17(21)27-28(11-35-21)19(31)29(20(32)34-2)14-4-6-15(7-5-14)36-22(24,25)26/h3-9H,10-11H2,1-2H3/t21-/m0/s1
Instrument: Q Exactive Plus
Instrument type: LC-ESI-QFT
Ms type: MS2
Ion mode: POSITIVE
Ionization: ESI
Fragmentation mode: HCD
Collision energy: 180 % (nominal)
Resolution: 15000
Column name: XBridge C18 3.5um, 2.1x50mm, Waters
Retention time: 12.982 min
Base peak: 528.0783
Precursor m/z: 528.078
Precursor type: [M+H]+
Precursor intensity: 66716548.9
m/z	relative intensity	assigned
50.0151	720	C4H2+
51.023	994	C4H3+
52.0182	146	C3H2N+
52.0307	39	C4H4+
53.0021	42	C3HO+
53.0386	44	C4H5+
56.0131	161	C2H2NO+
61.0073	197	C5H+
62.0151	428	C5H2+
63.0229	953	C5H3+
64.0183	91	C4H2N+
64.0307	13	C5H4+
65.0023	64	C4HO+
65.0386	126	C5H5+
66.0465	29	C5H6+
68.9947	999	CF3+
69.9923	30	C2NO2+
72.984	442	C3H2Cl+
74.0151	783	C6H2+
75.0229	951	C6H3+
76.0182	65	C5H2N+
76.0308	106	C6H4+
77.0021	37	C5HO+
78.0338	387	C5H4N+
78.0464	52	C6H6+
86.0151	157	C7H2+
87.0101	20	C6HN+
87.023	264	C7H3+
88.0183	137	C6H2N+
88.0307	178	C7H4+
89.0386	560	C7H5+
95.0491	119	C6H7O+
96.0442	20	C5H6NO+
96.9841	105	C5H2Cl+
98.0151	542	C8H2+
99.0103	152	C7HN+
99.023	211	C8H3+
100.0182	215	C7H2N+
100.0308	68	C8H4+
101.0385	39	C8H5+
102.0465	103	C8H6+
106.0285	38	C6H4NO+
113.0386	263	C9H5+
114.034	143	C8H4N+
115.0416	33	C8H5N+
115.0543	193	C9H7+
118.0414	18	C8H6O+
122.9996	105	C7H4Cl+
126.0465	44	C10H6+
127.0416	64	C9H5N+
129.0449	57	C8H5N2+
132.0569	40	C9H8O+
136.0075	32	C8H5Cl+
140.0495	31	C10H6N+
