Mass spectrum: Telmisartan O-acyl-glucuronide; LC-ESI-QFT; MS2; CE: 75%; R=17500; [M+H]+
Name: Telmisartan O-acyl-glucuronide
Name: 3,4,5-trihydroxy-6-[2-[4-[[4-methyl-6-(1-methylbenzimidazol-2-yl)-2-propylbenzimidazol-1-yl]methyl]phenyl]benzoyl]oxyoxane-2-carboxylic acid
Formula: C39H38N4O8
Exact mass: 690.2689642
SMILES: CCCC1=NC2=C(N1CC3=CC=C(C=C3)C4=CC=CC=C4C(=O)OC5C(C(C(C(O5)C(=O)O)O)O)O)C=C(C=C2C)C6=NC7=CC=CC=C7N6C
InChI: InChI=1S/C39H38N4O8/c1-4-9-30-41-31-21(2)18-24(36-40-27-12-7-8-13-28(27)42(36)3)19-29(31)43(30)20-22-14-16-23(17-15-22)25-10-5-6-11-26(25)38(49)51-39-34(46)32(44)33(45)35(50-39)37(47)48/h5-8,10-19,32-35,39,44-46H,4,9,20H2,1-3H3,(H,47,48)
Instrument: Exploris 240 Orbitrap Thermo Scientific
Instrument type: LC-ESI-QFT
Ms type: MS2
Ion mode: POSITIVE
Ionization: ESI
Fragmentation mode: HCD
Collision energy: 75 % (nominal)
Resolution: 17500
Column name: XBridge C18 3.5um, 2.1x50mm, Waters
Retention time: 6.944 min
Base peak: 346.1415
Precursor m/z: 691.2762
Precursor type: [M+H]+
m/z	relative intensity	assigned
106.0648	6	C7H8N+
133.0283	6	C8H5O2+
133.0756	4	C8H9N2+
144.0683	4	C9H8N2+
152.0618	19	C12H8+
153.0694	8	C12H9+
155.0859	16	C12H11+
165.0699	45	C13H9+
183.0802	9	C13H11O+
193.0648	104	C14H9O+
211.0754	90	C14H11O2+
222.1153	3	C15H14N2+
260.105	13	C16H12N4+
261.1134	162	C16H13N4+
273.1145	7	C17H13N4+
275.1291	124	C17H15N4+
276.1368	999	C17H16N4+
277.1397	8	C11H21N2O6+
287.1288	18	C18H15N4+
289.1447	254	C18H17N4+
303.1603	120	C19H19N4+
305.1763	60	C19H21N4+
317.1765	16	C20H21N4+
467.1862	52	C31H23N4O+
471.1837	7	C30H23N4O2+
483.1826	3	C33H25NO3+
485.1971	30	C31H25N4O2+
