Mass spectrum: Monuron; LC-ESI-QFT; MS2; CE: 30%; R=15000; [M+H]+
Name: Monuron
Name: 3-(4-chlorophenyl)-1,1-dimethylurea
Formula: C9H11ClN2O
Exact mass: 198.0559907
SMILES: CN(C)C(=O)NC1=CC=C(Cl)C=C1
InChI: InChI=1S/C9H11ClN2O/c1-12(2)9(13)11-8-5-3-7(10)4-6-8/h3-6H,1-2H3,(H,11,13)
Instrument: Q Exactive Plus
Instrument type: LC-ESI-QFT
Ms type: MS2
Ion mode: POSITIVE
Ionization: ESI
Fragmentation mode: HCD
Collision energy: 30 % (nominal)
Resolution: 15000
Column name: XBridge C18 3.5um, 2.1x50mm, Waters
Retention time: 5.931 min
Base peak: 199.0633
Precursor m/z: 199.0633
Precursor type: [M+H]+
Precursor intensity: 1049607701.31
m/z	relative intensity	assigned
72.0444	999	C3H6NO+
154.0055	13	C7H5ClNO+
199.0632	623	C9H12ClN2O+
