Mass spectrum: N-(3-Dimethylaminopropyl)methacrylamide; LC-ESI-QFT; MS2; CE: 60%; R=15000; [M+H]+
Name: N-(3-Dimethylaminopropyl)methacrylamide
Name: N-(3-(Dimethylamino)propyl)methacrylamide
Name: N-[3-(dimethylamino)propyl]-2-methylprop-2-enamide
Formula: C9H18N2O
Exact mass: 170.1419132
SMILES: CC(=C)C(=O)NCCCN(C)C
InChI: InChI=1S/C9H18N2O/c1-8(2)9(12)10-6-5-7-11(3)4/h1,5-7H2,2-4H3,(H,10,12)
Instrument: Exploris 240 Thermo Scientific
Instrument type: LC-ESI-QFT
Ms type: MS2
Ion mode: POSITIVE
Ionization: ESI
Fragmentation mode: HCD
Collision energy: 60 % (nominal)
Resolution: 15000
Column name: XBridge C18 3.5um, 2.1x50mm, Waters
Retention time: 1.250 min
Base peak: 171.1487
Precursor m/z: 171.1492
Precursor type: [M+H]+
m/z	relative intensity	assigned
41.0385	15	C3H5+
69.0334	513	C4H5O+
98.0599	259	C5H8NO+
126.0911	999	C7H12NO+
