Mass spectrum: Imidodicarbonic diamide; LC-ESI-QFT; MS2; CE: 75%; R=15000; [M+H]+
Name: Imidodicarbonic diamide
Name: Biuret
Name: carbamoylurea
Formula: C2H5N3O2
Exact mass: 103.0381764
SMILES: C(=O)(N)NC(=O)N
InChI: InChI=1S/C2H5N3O2/c3-1(6)5-2(4)7/h(H5,3,4,5,6,7)
Instrument: Exploris 240 Thermo Scientific
Instrument type: LC-ESI-QFT
Ms type: MS2
Ion mode: POSITIVE
Ionization: ESI
Fragmentation mode: HCD
Collision energy: 75 % (nominal)
Resolution: 15000
Column name: XBridge C18 3.5um, 2.1x50mm, Waters
Retention time: 0.934 min
Base peak: 132.958
Precursor m/z: 104.0455
Precursor type: [M+H]+
m/z	relative intensity	assigned
44.0131	95	CH2NO+
61.0396	999	CH5N2O+
104.0454	17	C2H6N3O2+
