Mass spectrum: Ethyl 2-cyano-3,3-diphenylacrylate; LC-ESI-QFT; MS2; CE: 60%; R=15000; [M+H]+
Name: Ethyl 2-cyano-3,3-diphenylacrylate
Name: ethyl 2-cyano-3,3-diphenylprop-2-enoate
Formula: C18H15NO2
Exact mass: 277.1102787
SMILES: CCOC(=O)C(C#N)=C(C1=CC=CC=C1)C1=CC=CC=C1
InChI: InChI=1S/C18H15NO2/c1-2-21-18(20)16(13-19)17(14-9-5-3-6-10-14)15-11-7-4-8-12-15/h3-12H,2H2,1H3
Instrument: Exploris 240 Thermo Scientific
Instrument type: LC-ESI-QFT
Ms type: MS2
Ion mode: POSITIVE
Ionization: ESI
Fragmentation mode: HCD
Collision energy: 60 % (nominal)
Resolution: 15000
Column name: XBridge C18 3.5um, 2.1x50mm, Waters
Retention time: 9.995 min
Base peak: 278.1172
Precursor m/z: 278.1176
Precursor type: [M+H]+
m/z	relative intensity	assigned
68.9972	11	C3HO2+
104.0495	65	C7H6N+
105.0334	742	C7H5O+
129.0336	27	C9H5O+
157.0285	15	C10H5O2+
165.0698	11	C13H9+
176.0617	37	C14H8+
177.0698	238	C14H9+
178.0779	57	C14H10+
202.0778	183	C16H10+
203.072	201	C15H9N+
204.0806	999	C15H10N+
206.0962	30	C15H12N+
232.0756	796	C16H10NO+
250.0864	68	C16H12NO2+
