Mass spectrum: Sacubitrilat; LC-ESI-QFT; MS2; CE: 150%; R=17500; [M+H]+
Name: Sacubitrilat
Name: (2R,4S)-4-(3-carboxypropanoylamino)-2-methyl-5-(4-phenylphenyl)pentanoic Acid
Name: 4-(3-carboxypropanoylamino)-2-methyl-5-(4-phenylphenyl)pentanoic acid
Name: LBQ657
Formula: C22H25NO5
Exact mass: 383.1732729
SMILES: CC(CC(CC1=CC=C(C=C1)C2=CC=CC=C2)NC(=O)CCC(=O)O)C(=O)O
InChI: InChI=1S/C22H25NO5/c1-15(22(27)28)13-19(23-20(24)11-12-21(25)26)14-16-7-9-18(10-8-16)17-5-3-2-4-6-17/h2-10,15,19H,11-14H2,1H3,(H,23,24)(H,25,26)(H,27,28)
Instrument: Exploris 240 Orbitrap Thermo Scientific
Instrument type: LC-ESI-QFT
Ms type: MS2
Ion mode: POSITIVE
Ionization: ESI
Fragmentation mode: HCD
Collision energy: 150 % (nominal)
Resolution: 17500
Column name: XBridge C18 3.5um, 2.1x50mm, Waters
Retention time: 9.223 min
Base peak: 384.1802
Precursor m/z: 384.1805
Precursor type: [M+H]+
m/z	relative intensity	assigned
51.0231	18	C4H3+
55.0179	90	C3H3O+
63.023	25	C5H3+
65.0386	111	C5H5+
72.0444	31	C3H6NO+
73.0287	37	C3H5O2+
77.0387	41	C6H5+
89.0386	90	C7H5+
91.0542	189	C7H7+
102.0465	21	C8H6+
115.0542	476	C9H7+
127.0547	23	C10H7+
128.062	188	C10H8+
139.0542	94	C11H7+
141.07	41	C11H9+
151.0539	111	C12H7+
152.0621	961	C12H8+
163.0544	62	C13H7+
164.062	111	C13H8+
165.0699	999	C13H9+
166.0772	28	C13H10+
169.0648	46	C12H9O+
176.0622	393	C14H8+
177.0698	390	C14H9+
178.0778	918	C14H10+
189.0699	144	C15H9+
190.078	65	C15H10+
191.0851	107	C15H11+
