Mass spectrum: Losartan-carboxylic acid; LC-ESI-QFT; MS2; CE: 75%; R=17500; [M-H]-
Name: Losartan-carboxylic acid
Name: Losartan carboxylic acid
Name: 2-butyl-5-chloro-3-[[4-[2-(2H-tetrazol-5-yl)phenyl]phenyl]methyl]imidazole-4-carboxylic acid
Formula: C22H21ClN6O2
Exact mass: 436.1414516
SMILES: CCCCC1=NC(=C(N1CC2=CC=C(C=C2)C3=CC=CC=C3C4=NNN=N4)C(=O)O)Cl
InChI: InChI=1S/C22H21ClN6O2/c1-2-3-8-18-24-20(23)19(22(30)31)29(18)13-14-9-11-15(12-10-14)16-6-4-5-7-17(16)21-25-27-28-26-21/h4-7,9-12H,2-3,8,13H2,1H3,(H,30,31)(H,25,26,27,28)
Instrument: Exploris 240 Orbitrap Thermo Scientific
Instrument type: LC-ESI-QFT
Ms type: MS2
Ion mode: NEGATIVE
Ionization: ESI
Fragmentation mode: HCD
Collision energy: 75 % (nominal)
Resolution: 17500
Column name: XBridge C18 3.5um, 2.1x50mm, Waters
Retention time: 8.212 min
Base peak: 435.1339
Precursor m/z: 435.1342
Precursor type: [M-H]-
m/z	relative intensity	assigned
113.999	873	C4H3ClN2-
115.0066	4	C4H4ClN2-
127.0069	26	C5H4ClN2-
157.0537	999	C7H10ClN2-
