Mass spectrum: Hexaflumuron; LC-ESI-QFT; MS2; CE: 90%; R=15000; [M+H]+
Name: Hexaflumuron
Name: N-[[3,5-dichloro-4-(1,1,2,2-tetrafluoroethoxy)phenyl]carbamoyl]-2,6-difluorobenzamide
Formula: C16H8Cl2F6N2O3
Exact mass: 459.9816168
SMILES: C1=CC(=C(C(=C1)F)C(=O)NC(=O)NC2=CC(=C(C(=C2)Cl)OC(C(F)F)(F)F)Cl)F
InChI: InChI=1S/C16H8Cl2F6N2O3/c17-7-4-6(5-8(18)12(7)29-16(23,24)14(21)22)25-15(28)26-13(27)11-9(19)2-1-3-10(11)20/h1-5,14H,(H2,25,26,27,28)
Instrument: Q Exactive Plus
Instrument type: LC-ESI-QFT
Ms type: MS2
Ion mode: POSITIVE
Ionization: ESI
Fragmentation mode: HCD
Collision energy: 90 % (nominal)
Resolution: 15000
Column name: XBridge C18 3.5um, 2.1x50mm, Waters
Retention time: 13.338 min
Base peak: 164.9845
Precursor m/z: 460.9889
Precursor type: [M+H]+
Precursor intensity: 5320153.06
m/z	relative intensity	assigned
63.0229	113	C5H3+
100.0181	17	C7H2N+
109.0284	11	C6H5O2+
111.024	42	C6H4FO+
113.0196	54	C6H3F2+
131.0302	51	C6H5F2O+
140.0304	29	C7H4F2N+
141.0145	999	C7H3F2O+
141.0257	333	C6H3F2N2+
148.0305	26	C4H5F5+
