Mass spectrum: 1,3,7-Trimethyluric acid; LC-ESI-QFT; MS2; CE: 60%; R=17500; [M+H]+
Name: 1,3,7-Trimethyluric acid
Name: 1,3,7-trimethyl-9H-purine-2,6,8-trione
Formula: C8H10N4O3
Exact mass: 210.0752902
SMILES: CN1C2=C(NC1=O)N(C(=O)N(C2=O)C)C
InChI: InChI=1S/C8H10N4O3/c1-10-4-5(9-7(10)14)11(2)8(15)12(3)6(4)13/h1-3H3,(H,9,14)
Instrument: Exploris 240 Orbitrap Thermo Scientific
Instrument type: LC-ESI-QFT
Ms type: MS2
Ion mode: POSITIVE
Ionization: ESI
Fragmentation mode: HCD
Collision energy: 60 % (nominal)
Resolution: 17500
Column name: XBridge C18 3.5um, 2.1x50mm, Waters
Retention time: 2.602 min
Base peak: 211.0825
Precursor m/z: 211.0826
Precursor type: [M+H]+
m/z	relative intensity	assigned
56.0495	43	C3H6N+
57.0447	72	C2H5N2+
69.0447	73	C3H5N2+
83.0603	347	C4H7N2+
85.0396	204	C3H5N2O+
97.0759	11	C5H9N2+
98.0475	14	C4H6N2O+
99.0553	54	C4H7N2O+
110.0714	29	C5H8N3+
111.0427	47	C4H5N3O+
111.055	25	C5H7N2O+
124.0869	61	C6H10N3+
125.0585	20	C5H7N3O+
126.0662	946	C5H8N3O+
136.0503	9	C6H6N3O+
138.0301	15	C5H4N3O2+
139.0377	242	C5H5N3O2+
142.0612	48	C5H8N3O2+
151.061	20	C6H7N4O+
152.0453	9	C6H6N3O2+
152.0696	89	C6H8N4O+
153.0533	62	C6H7N3O2+
154.0611	787	C6H8N3O2+
167.093	46	C7H11N4O+
169.0718	23	C6H9N4O2+
183.0875	37	C7H11N4O2+
196.0591	999	C7H8N4O3+
211.0826	860	C8H11N4O3+
