Mass spectrum: 8-Hydroxymirtazapine; LC-ESI-QFT; MS2; CE: 150%; R=17500; [M+H]+
Name: 8-Hydroxymirtazapine
Name: 5-methyl-2,5,19-triazatetracyclo[13.4.0.02,7.08,13]nonadeca-1(15),8,10,12,16,18-hexaen-17-ol
Formula: C17H19N3O
Exact mass: 281.1528122
SMILES: CN1CCN2C(C1)C3=CC=CC=C3CC4=CC(=CN=C42)O
InChI: InChI=1S/C17H19N3O/c1-19-6-7-20-16(11-19)15-5-3-2-4-12(15)8-13-9-14(21)10-18-17(13)20/h2-5,9-10,16,21H,6-8,11H2,1H3
Instrument: Exploris 240 Orbitrap Thermo Scientific
Instrument type: LC-ESI-QFT
Ms type: MS2
Ion mode: POSITIVE
Ionization: ESI
Fragmentation mode: HCD
Collision energy: 150 % (nominal)
Resolution: 17500
Column name: XBridge C18 3.5um, 2.1x50mm, Waters
Retention time: 3.696 min
Base peak: 282.1597
Precursor m/z: 282.1601
Precursor type: [M+H]+
m/z	relative intensity	assigned
51.0229	230	C4H3+
53.0386	834	C4H5+
55.018	101	C3H3O+
56.0495	213	C3H6N+
58.0652	367	C3H8N+
63.023	132	C5H3+
65.0386	217	C5H5+
68.0131	879	C3H2NO+
70.0652	150	C4H8N+
72.0806	291	C4H10N+
77.0386	223	C6H5+
78.0339	182	C5H4N+
80.0494	306	C5H6N+
89.0386	340	C7H5+
90.0464	96	C7H6+
91.0543	393	C7H7+
103.0543	198	C8H7+
115.0543	999	C9H7+
116.0497	180	C8H6N+
127.0543	250	C10H7+
129.0701	118	C10H9+
130.065	289	C9H8N+
139.0541	626	C11H7+
140.0496	320	C10H6N+
140.0625	139	C11H8+
141.0573	70	C10H7N+
141.0702	201	C11H9+
145.0653	81	C10H9O+
151.0542	108	C12H7+
154.0653	776	C11H8N+
166.0653	328	C12H8N+
167.0731	342	C12H9N+
181.0763	532	C12H9N2+
182.0836	52	C12H10N2+
192.0685	96	C13H8N2+
209.0712	342	C13H9N2O+
210.079	396	C13H10N2O+
