Mass spectrum: 3-Hydroxycotinine; LC-ESI-QFT; MS2; CE: 120%; R=17500; [M+H]+
Name: 3-Hydroxycotinine
Name: 2-Pyrrolidinone, 3-hydroxy-1-methyl-5-(3-pyridinyl)-
Name: 3-hydroxy-1-methyl-5-pyridin-3-ylpyrrolidin-2-one
Formula: C10H12N2O2
Exact mass: 192.0898776
SMILES: CN1C(CC(C1=O)O)C2=CN=CC=C2
InChI: InChI=1S/C10H12N2O2/c1-12-8(5-9(13)10(12)14)7-3-2-4-11-6-7/h2-4,6,8-9,13H,5H2,1H3
Instrument: Exploris 240 Orbitrap Thermo Scientific
Instrument type: LC-ESI-QFT
Ms type: MS2
Ion mode: POSITIVE
Ionization: ESI
Fragmentation mode: HCD
Collision energy: 120 % (nominal)
Resolution: 17500
Column name: XBridge C18 3.5um, 2.1x50mm, Waters
Retention time: 0.962 min
Base peak: 193.0971
Precursor m/z: 193.0972
Precursor type: [M+H]+
m/z	relative intensity	assigned
53.0386	66	C4H5+
56.0495	6	C3H6N+
58.0651	237	C3H8N+
77.0386	9	C6H5+
78.0339	11	C5H4N+
79.0418	15	C5H5N+
79.0542	15	C6H7+
80.0495	999	C5H6N+
86.0602	31	C4H8NO+
91.0544	10	C7H7+
93.0574	15	C6H7N+
94.0651	8	C6H8N+
96.0446	14	C5H6NO+
106.0652	58	C7H8N+
108.0445	15	C6H6NO+
117.0575	7	C8H7N+
118.0654	19	C8H8N+
134.0607	14	C8H8NO+
