Mass spectrum: 4,4`-Oxydianiline; LC-ESI-QFT; MS2; CE: 15%; R=15000; [M+H]+
Name: 4,4`-Oxydianiline
Name: 4-(4-aminophenoxy)aniline
Formula: C12H12N2O
Exact mass: 200.094963
SMILES: NC1=CC=C(OC2=CC=C(N)C=C2)C=C1
InChI: InChI=1S/C12H12N2O/c13-9-1-5-11(6-2-9)15-12-7-3-10(14)4-8-12/h1-8H,13-14H2
Instrument: Exploris 240 Thermo Scientific
Instrument type: LC-ESI-QFT
Ms type: MS2
Ion mode: POSITIVE
Ionization: ESI
Fragmentation mode: HCD
Collision energy: 15 % (nominal)
Resolution: 15000
Column name: XBridge C18 3.5um, 2.1x50mm, Waters
Retention time: 1.535 min
Base peak: 201.1018
Precursor m/z: 201.1022
Precursor type: [M+H]+
m/z	relative intensity	assigned
201.102	999	C12H13N2O+
