Mass spectrum: 1,7-Dimethyluric acid; LC-ESI-QFT; MS2; CE: 45%; R=17500; [M+H]+
Name: 1,7-Dimethyluric acid
Name: 1,7-dimethyl-3,9-dihydropurine-2,6,8-trione
Formula: C7H8N4O3
Exact mass: 196.0596401
SMILES: CN1C2=C(NC1=O)NC(=O)N(C2=O)C
InChI: InChI=1S/C7H8N4O3/c1-10-3-4(8-6(10)13)9-7(14)11(2)5(3)12/h1-2H3,(H,8,13)(H,9,14)
Instrument: Exploris 240 Orbitrap Thermo Scientific
Instrument type: LC-ESI-QFT
Ms type: MS2
Ion mode: POSITIVE
Ionization: ESI
Fragmentation mode: HCD
Collision energy: 45 % (nominal)
Resolution: 17500
Column name: XBridge C18 3.5um, 2.1x50mm, Waters
Retention time: 2.330 min
Base peak: 197.0669
Precursor m/z: 197.0669
Precursor type: [M+H]+
m/z	relative intensity	assigned
69.0448	10	C3H5N2+
112.0508	14	C4H6N3O+
140.0454	741	C5H6N3O2+
155.0562	7	C5H7N4O2+
158.0561	37	C5H8N3O3+
166.025	14	C6H4N3O3+
169.0726	6	C6H9N4O2+
179.0562	10	C7H7N4O2+
182.0437	45	C6H6N4O3+
197.0669	999	C7H9N4O3+
