Mass spectrum: MCPB; LC-ESI-QFT; MS2; CE: 45%; R=15000; [M+H]+
Name: MCPB
Name: 4-(4-chloro-2-methylphenoxy)butanoic acid
Formula: C11H13ClO3
Exact mass: 228.055322
SMILES: CC1=C(OCCCC(O)=O)C=CC(Cl)=C1
InChI: InChI=1S/C11H13ClO3/c1-8-7-9(12)4-5-10(8)15-6-2-3-11(13)14/h4-5,7H,2-3,6H2,1H3,(H,13,14)
Instrument: Q Exactive Plus
Instrument type: LC-ESI-QFT
Ms type: MS2
Ion mode: POSITIVE
Ionization: ESI
Fragmentation mode: HCD
Collision energy: 45 % (nominal)
Resolution: 15000
Column name: XBridge C18 3.5um, 2.1x50mm, Waters
Retention time: 10.664 min
Base peak: 164.9846
Precursor m/z: 229.0626
Precursor type: [M+H]+
Precursor intensity: 4502198.41
m/z	relative intensity	assigned
69.0335	833	C4H5O+
87.0441	999	C4H7O2+
155.0258	399	C8H8ClO+
193.0418	29	C11H10ClO+
