Mass spectrum: Linuron; LC-ESI-QFT; MS2; CE: 45%; R=15000; [M+H]+
Name: Linuron
Name: 3-(3,4-dichlorophenyl)-1-methoxy-1-methylurea
Formula: C9H10Cl2N2O2
Exact mass: 248.0119329
SMILES: CON(C)C(=O)NC1=CC=C(Cl)C(Cl)=C1
InChI: InChI=1S/C9H10Cl2N2O2/c1-13(15-2)9(14)12-6-3-4-7(10)8(11)5-6/h3-5H,1-2H3,(H,12,14)
Instrument: Q Exactive Plus
Instrument type: LC-ESI-QFT
Ms type: MS2
Ion mode: POSITIVE
Ionization: ESI
Fragmentation mode: HCD
Collision energy: 45 % (nominal)
Resolution: 15000
Column name: XBridge C18 3.5um, 2.1x50mm, Waters
Retention time: 8.860 min
Base peak: 249.0193
Precursor m/z: 249.0192
Precursor type: [M+H]+
Precursor intensity: 425494460.33
m/z	relative intensity	assigned
60.0444	145	C2H6NO+
62.06	113	C2H8NO+
88.0393	17	C3H6NO2+
123.9948	17	C6H3ClN+
125.0026	44	C6H4ClN+
132.9606	128	C5H3Cl2+
153.0213	47	C7H6ClN2+
159.9715	999	C6H4Cl2N+
160.9793	269	C6H5Cl2N+
165.0214	12	C8H6ClN2+
181.0161	34	C8H6ClN2O+
182.024	633	C8H7ClN2O+
216.993	61	C8H7Cl2N2O+
