Mass spectrum: Cyprodinil-TP-CGA-275535; LC-ESI-QFT; MS2; CE: 30%; R=15000; [M+H]+
Name: Cyprodinil-TP-CGA-275535
Name: 3-[(4-Cyclopropyl-6-methyl-2-pyrimidinyl)amino]phenol
Name: 3-[(4-cyclopropyl-6-methylpyrimidin-2-yl)amino]phenol
Formula: C14H15N3O
Exact mass: 241.1215121
SMILES: CC1=NC(=NC(=C1)C2CC2)NC3=CC=CC(=C3)O
InChI: InChI=1S/C14H15N3O/c1-9-7-13(10-5-6-10)17-14(15-9)16-11-3-2-4-12(18)8-11/h2-4,7-8,10,18H,5-6H2,1H3,(H,15,16,17)
Instrument: Exploris 240 Thermo Scientific
Instrument type: LC-ESI-QFT
Ms type: MS2
Ion mode: POSITIVE
Ionization: ESI
Fragmentation mode: HCD
Collision energy: 30 % (nominal)
Resolution: 15000
Column name: XBridge C18 3.5um, 2.1x50mm, Waters
Retention time: 5.417 min
Base peak: 242.1283
Precursor m/z: 242.1288
Precursor type: [M+H]+
m/z	relative intensity	assigned
67.0542	10	C5H7+
80.0495	11	C5H6N+
92.0495	17	C6H6N+
93.0572	39	C6H7N+
106.0654	28	C7H8N+
108.0807	110	C7H10N+
109.0757	13	C6H9N2+
110.0599	62	C6H8NO+
132.0681	14	C8H8N2+
133.0759	88	C8H9N2+
135.0551	53	C7H7N2O+
151.0862	10	C8H11N2O+
159.0919	13	C10H11N2+
160.0754	29	C10H10NO+
175.0863	11	C10H11N2O+
200.0811	12	C11H10N3O+
201.1021	16	C12H13N2O+
214.1334	42	C13H16N3+
226.0967	25	C13H12N3O+
242.1285	999	C14H16N3O+
