Mass spectrum: Terbacil; LC-ESI-QFT; MS2; CE: 75%; R=15000; [M-H]-
Name: Terbacil
Name: 3-tert-butyl-5-chloro-6-methyl-1H-pyrimidine-2,4-dione
Formula: C9H13ClN2O2
Exact mass: 216.0665553
SMILES: CC1=C(Cl)C(=O)N(C(=O)N1)C(C)(C)C
InChI: InChI=1S/C9H13ClN2O2/c1-5-6(10)7(13)12(8(14)11-5)9(2,3)4/h1-4H3,(H,11,14)
Instrument: Q Exactive Plus
Instrument type: LC-ESI-QFT
Ms type: MS2
Ion mode: NEGATIVE
Ionization: ESI
Fragmentation mode: HCD
Collision energy: 75 % (nominal)
Resolution: 15000
Column name: XBridge C18 3.5um, 2.1x50mm, Waters
Retention time: 6.395 min
Base peak: 215.0594
Precursor m/z: 215.0593
Precursor type: [M-H]-
Precursor intensity: 174857755.42
m/z	relative intensity	assigned
72.9724	117	C2ClN-
73.9803	39	C2HClN-
74.9643	126	C2ClO-
115.9908	86	C4H3ClNO-
158.9966	999	C5H4ClN2O2-
