Mass spectrum: Ganciclovir; LC-ESI-QFT; MS2; CE: 75%; R=15000; [M-H]-
Name: Ganciclovir
Name: CID 3454
Name: 2-azanyl-9-[1,3-bis(oxidanyl)propan-2-yloxymethyl]-1H-purin-6-one
Formula: C9H13N5O4
Exact mass: 255.0967539
SMILES: C1=NC2=C(N1COC(CO)CO)N=C(NC2=O)N
InChI: InChI=1S/C9H13N5O4/c10-9-12-7-6(8(17)13-9)11-3-14(7)4-18-5(1-15)2-16/h3,5,15-16H,1-2,4H2,(H3,10,12,13,17)
Instrument: Q Exactive
Instrument type: LC-ESI-QFT
Ms type: MS2
Ion mode: NEGATIVE
Ionization: ESI
Fragmentation mode: HCD
Collision energy: 75 % (nominal)
Resolution: 15000
Column name: XBridge C18 3.5um, 2.1x50mm, Waters
Retention time: 0.849 min
Base peak: 254.0896
Precursor m/z: 254.0895
Precursor type: [M-H]-
Precursor intensity: 119879646.76
m/z	relative intensity	assigned
59.0137	24	C2H3O2-
65.0145	241	C3HN2-
65.9984	53	C3NO-
66.0097	202	C2N3-
67.0301	99	C3H3N2-
82.0413	30	C3H4N3-
92.0255	661	C4H2N3-
106.0286	74	C4H2N4-
107.0363	117	C4H3N4-
108.0204	306	C4H2N3O-
119.0363	503	C5H3N4-
120.0204	63	C5H2N3O-
125.0469	17	C4H5N4O-
126.0309	226	C4H4N3O2-
133.0156	999	C5HN4O-
149.034	12	C5H3N5O-
150.0421	258	C5H4N5O-
162.0421	41	C6H4N5O-
