Mass spectrum: Profenofos; LC-ESI-QFT; MS2; CE: 60%; R=15000; [M+H]+
Name: Profenofos
Name: 4-bromo-2-chloro-1-[ethoxy(propylsulfanyl)phosphoryl]oxybenzene
Formula: C11H15BrClO3PS
Exact mass: 371.9351418
SMILES: CCCSP(=O)(OCC)OC1=C(C=C(C=C1)Br)Cl
InChI: InChI=1S/C11H15BrClO3PS/c1-3-7-18-17(14,15-4-2)16-11-6-5-9(12)8-10(11)13/h5-6,8H,3-4,7H2,1-2H3
Instrument: Exploris 240 Thermo Scientific
Instrument type: LC-ESI-QFT
Ms type: MS2
Ion mode: POSITIVE
Ionization: ESI
Fragmentation mode: HCD
Collision energy: 60 % (nominal)
Resolution: 15000
Column name: XBridge C18 3.5um, 2.1x50mm, Waters
Retention time: 13.098 min
Base peak: 374.9398
Precursor m/z: 372.9424
Precursor type: [M+H]+
m/z	relative intensity	assigned
96.9507	548	H2O2PS+
98.9842	34	CH4ClO3+
114.9612	582	H4O3PS+
128.0022	999	C5H5O2P+
143.9793	904	C5H5OPS+
158.9443	51	C5H4BrO+
158.967	38	C6H4ClOS+
186.9387	508	C6H4BrO2+
187.9691	159	C6H5O3PS+
205.9126	42	C6H4BrClO+
205.9353	102	C6H4ClO2PS+
206.9207	253	C6H5BrClO+
220.8819	454	C5H3BrOPS+
222.898	156	C6H5BrClS+
222.9375	78	C6H5ClO3PS+
250.9102	50	C7H5BrClO3+
268.8762	95	C6H4BrClO3P+
302.8637	408	C6H6BrClO3PS+
