Mass spectrum: Flurprimidol; LC-ESI-QFT; MS2; CE: 60%; R=15000; [M+H]+
Name: Flurprimidol
Name: 2-methyl-1-pyrimidin-5-yl-1-[4-(trifluoromethoxy)phenyl]propan-1-ol
Formula: C15H15F3N2O2
Exact mass: 312.1085624
SMILES: CC(C)C(C1=CC=C(C=C1)OC(F)(F)F)(C2=CN=CN=C2)O
InChI: InChI=1S/C15H15F3N2O2/c1-10(2)14(21,12-7-19-9-20-8-12)11-3-5-13(6-4-11)22-15(16,17)18/h3-10,21H,1-2H3
Instrument: Exploris 240 Thermo Scientific
Instrument type: LC-ESI-QFT
Ms type: MS2
Ion mode: POSITIVE
Ionization: ESI
Fragmentation mode: HCD
Collision energy: 60 % (nominal)
Resolution: 15000
Column name: XBridge C18 3.5um, 2.1x50mm, Waters
Retention time: 9.380 min
Base peak: 313.1155
Precursor m/z: 313.1158
Precursor type: [M+H]+
m/z	relative intensity	assigned
54.0338	23	C3H4N+
80.0368	31	C4H4N2+
81.0447	290	C4H5N2+
130.065	10	C9H8N+
157.0757	17	C10H9N2+
175.0364	17	C8H6F3O+
185.0707	190	C11H9N2O+
189.0156	127	C8H4F3O2+
214.0473	20	C10H7F3NO+
241.058	62	C11H8F3N2O+
242.0411	13	C14H6F2NO+
244.0577	20	C11H9F3NO2+
268.0943	18	C14H13F3NO+
269.0532	542	C12H8F3N2O2+
270.061	999	C12H9F3N2O2+
313.1157	21	C15H16F3N2O2+
