Mass spectrum: Sacubitrilat; LC-ESI-QFT; MS2; CE: 60%; R=17500; [M+H]+
Name: Sacubitrilat
Name: (2R,4S)-4-(3-carboxypropanoylamino)-2-methyl-5-(4-phenylphenyl)pentanoic Acid
Name: 4-(3-carboxypropanoylamino)-2-methyl-5-(4-phenylphenyl)pentanoic acid
Name: LBQ657
Formula: C22H25NO5
Exact mass: 383.1732729
SMILES: CC(CC(CC1=CC=C(C=C1)C2=CC=CC=C2)NC(=O)CCC(=O)O)C(=O)O
InChI: InChI=1S/C22H25NO5/c1-15(22(27)28)13-19(23-20(24)11-12-21(25)26)14-16-7-9-18(10-8-16)17-5-3-2-4-6-17/h2-10,15,19H,11-14H2,1H3,(H,23,24)(H,25,26)(H,27,28)
Instrument: Exploris 240 Orbitrap Thermo Scientific
Instrument type: LC-ESI-QFT
Ms type: MS2
Ion mode: POSITIVE
Ionization: ESI
Fragmentation mode: HCD
Collision energy: 60 % (nominal)
Resolution: 17500
Column name: XBridge C18 3.5um, 2.1x50mm, Waters
Retention time: 9.223 min
Base peak: 384.1802
Precursor m/z: 384.1805
Precursor type: [M+H]+
m/z	relative intensity	assigned
55.0178	28	C3H3O+
69.0337	26	C4H5O+
69.0699	72	C5H9+
72.0443	20	C3H6NO+
73.0284	41	C3H5O2+
98.0601	89	C5H8NO+
100.0394	60	C4H6NO2+
101.0234	56	C4H5O3+
112.0756	10	C6H10NO+
165.0699	256	C13H9+
167.0856	339	C13H11+
178.0778	375	C14H10+
179.0855	147	C14H11+
191.0859	17	C15H11+
192.0932	15	C15H12+
193.1013	999	C15H13+
196.1126	15	C14H14N+
205.1017	11	C16H13+
206.1099	7	C16H14+
221.1327	64	C17H17+
266.1542	102	C18H20NO+
278.1549	11	C19H20NO+
