Mass spectrum: Abacavir; LC-ESI-QFT; MS2; CE: 90%; R=17500; [M+H]+
Name: Abacavir
Name: {4-[2-amino-6-(cyclopropylamino)-9H-purin-9-yl]cyclopent-2-en-1-yl}methanol
Name: [4-[2-amino-6-(cyclopropylamino)purin-9-yl]cyclopent-2-en-1-yl]methanol
Formula: C14H18N6O
Exact mass: 286.1542092
SMILES: C1CC1NC2=C3C(=NC(=N2)N)N(C=N3)C4CC(C=C4)CO
InChI: InChI=1S/C14H18N6O/c15-14-18-12(17-9-2-3-9)11-13(19-14)20(7-16-11)10-4-1-8(5-10)6-21/h1,4,7-10,21H,2-3,5-6H2,(H3,15,17,18,19)
Instrument: Exploris 240 Orbitrap Thermo Scientific
Instrument type: LC-ESI-QFT
Ms type: MS2
Ion mode: POSITIVE
Ionization: ESI
Fragmentation mode: HCD
Collision energy: 90 % (nominal)
Resolution: 17500
Column name: XBridge C18 3.5um, 2.1x50mm, Waters
Retention time: 3.267 min
Base peak: 287.1609
Precursor m/z: 287.1615
Precursor type: [M+H]+
m/z	relative intensity	assigned
53.0387	27	C4H5+
55.0178	16	C3H3O+
56.0495	46	C3H6N+
58.0651	336	C3H8N+
67.0542	194	C5H7+
77.0385	272	C6H5+
79.0542	999	C6H7+
82.0399	45	C3H4N3+
92.0243	31	C4H2N3+
95.0492	86	C6H7O+
95.0606	37	C5H7N2+
105.0447	136	C6H5N2+
107.0352	138	C4H3N4+
108.0431	85	C4H4N4+
108.0556	20	C5H6N3+
109.0508	374	C4H5N4+
119.0355	44	C5H3N4+
120.0558	52	C6H6N3+
122.0713	76	C6H8N3+
132.056	32	C7H6N3+
133.0382	32	C5H3N5+
133.0509	29	C6H5N4+
134.0461	995	C5H4N5+
136.0618	31	C5H6N5+
137.0463	44	C5H5N4O+
147.0663	85	C7H7N4+
149.0821	153	C7H9N4+
150.0648	865	C5H6N6+
151.0732	34	C5H7N6+
163.0726	48	C6H7N6+
174.0773	376	C8H8N5+
175.0726	56	C7H7N6+
191.1039	212	C8H11N6+
