Mass spectrum: Sacubitril; LC-ESI-QFT; MS2; CE: 30%; R=15000; [M-H]-
Name: Sacubitril
Name: AHU-377(Sacubitril)
Name: 4-[[(2S,4R)-5-ethoxy-4-methyl-5-oxidanylidene-1-(4-phenylphenyl)pentan-2-yl]amino]-4-oxidanylidene-butanoic acid
Formula: C24H29NO5
Exact mass: 411.204573
SMILES: CCOC(=O)C(C)CC(CC1=CC=C(C=C1)C2=CC=CC=C2)NC(=O)CCC(=O)O
InChI: InChI=1S/C24H29NO5/c1-3-30-24(29)17(2)15-21(25-22(26)13-14-23(27)28)16-18-9-11-20(12-10-18)19-7-5-4-6-8-19/h4-12,17,21H,3,13-16H2,1-2H3,(H,25,26)(H,27,28)
Instrument: Q Exactive
Instrument type: LC-ESI-QFT
Ms type: MS2
Ion mode: NEGATIVE
Ionization: ESI
Fragmentation mode: HCD
Collision energy: 30 % (nominal)
Resolution: 15000
Column name: XBridge C18 3.5um, 2.1x50mm, Waters
Retention time: 10.974 min
Base peak: 410.1973
Precursor m/z: 410.1973
Precursor type: [M-H]-
Precursor intensity: 141178230.99
m/z	relative intensity	assigned
72.0454	27	C3H6NO-
96.0455	22	C5H6NO-
98.0248	508	C4H4NO2-
99.0088	999	C4H3O3-
116.0353	37	C4H6NO3-
167.0865	783	C13H11-
264.1388	37	C18H18NO-
