Mass spectrum: Prazosin; LC-ESI-QFT; MS2; CE: 45%; R=17500; [M+H]+
Name: Prazosin
Name: [4-(4-amino-6,7-dimethoxyquinazolin-2-yl)piperazin-1-yl]-(furan-2-yl)methanone
Formula: C19H21N5O4
Exact mass: 383.159354152
SMILES: COC1=C(C=C2C(=C1)C(=NC(=N2)N3CCN(CC3)C(=O)C4=CC=CO4)N)OC
InChI: InChI=1S/C19H21N5O4/c1-26-15-10-12-13(11-16(15)27-2)21-19(22-17(12)20)24-7-5-23(6-8-24)18(25)14-4-3-9-28-14/h3-4,9-11H,5-8H2,1-2H3,(H2,20,21,22)
Instrument: Exploris 240 Orbitrap Thermo Scientific
Instrument type: LC-ESI-QFT
Ms type: MS2
Ion mode: POSITIVE
Ionization: ESI
Fragmentation mode: HCD
Collision energy: 45 % (nominal)
Resolution: 17500
Column name: XBridge C18 3.5um, 2.1x50mm, Waters
Retention time: 4.835 min
Base peak: 384.1665
Precursor m/z: 384.1666
Precursor type: [M+H]+
m/z	relative intensity	assigned
70.0649	10	C4H8N+
95.0128	186	C5H3O2+
120.0441	26	C7H6NO+
138.0549	283	C7H8NO2+
164.0706	100	C9H10NO2+
220.0963	11	C12H14NO3+
221.1031	33	C10H13N4O2+
222.0883	10	C10H12N3O3+
231.0872	35	C11H11N4O2+
232.0957	60	C11H12N4O2+
233.1024	24	C11H13N4O2+
245.1027	19	C12H13N4O2+
247.1189	814	C12H15N4O2+
288.1457	43	C14H18N5O2+
315.1094	18	C15H15N4O4+
316.1407	46	C15H18N5O3+
340.14	23	C17H18N5O3+
341.1247	84	C17H17N4O4+
350.126	17	C18H16N5O3+
366.1566	184	C19H20N5O3+
368.1356	77	C18H18N5O4+
369.1417	52	C18H19N5O4+
384.167	999	C19H22N5O4+
