Mass spectrum: 5-3-FTCA; LC-ESI-QFT; MS2; CE: 60%; R=17500; [M-H]-
Name: 5-3-FTCA
Name: 2H,2H,3H,3H-Perfluorooctanoic acid
Name: 4,4,5,5,6,6,7,7,8,8,8-undecafluorooctanoic acid
Formula: C8H5F11O2
Exact mass: 342.01138982
SMILES: C(CC(C(C(C(C(F)(F)F)(F)F)(F)F)(F)F)(F)F)C(=O)O
InChI: InChI=1S/C8H5F11O2/c9-4(10,2-1-3(20)21)5(11,12)6(13,14)7(15,16)8(17,18)19/h1-2H2,(H,20,21)
Instrument: Exploris 240 Orbitrap Thermo Scientific
Instrument type: LC-ESI-QFT
Ms type: MS2
Ion mode: NEGATIVE
Ionization: ESI
Fragmentation mode: HCD
Collision energy: 60 % (nominal)
Resolution: 17500
Column name: XBridge C18 3.5um, 2.1x50mm, Waters
Retention time: 11.644 min
Base peak: 341.0037
Precursor m/z: 341.0041
Precursor type: [M-H]-
m/z	relative intensity	assigned
62.9888	62	CFO2-
166.9925	78	C6F5-
216.9893	999	C7F7-
232.9839	9	C2F11-
236.9959	35	C7HF8-
