Mass spectrum: Malathion; LC-ESI-QFT; MS2; CE: 15%; R=15000; [M+H]+
Name: Malathion
Name: diethyl 2-dimethoxyphosphinothioylsulfanylbutanedioate
Formula: C10H19O6PS2
Exact mass: 330.036067
SMILES: CCOC(=O)CC(C(=O)OCC)SP(=S)(OC)OC
InChI: InChI=1S/C10H19O6PS2/c1-5-15-9(11)7-8(10(12)16-6-2)19-17(18,13-3)14-4/h8H,5-7H2,1-4H3
Instrument: Exploris 240 Thermo Scientific
Instrument type: LC-ESI-QFT
Ms type: MS2
Ion mode: POSITIVE
Ionization: ESI
Fragmentation mode: HCD
Collision energy: 15 % (nominal)
Resolution: 15000
Column name: XBridge C18 3.5um, 2.1x50mm, Waters
Retention time: 9.256 min
Base peak: 331.0434
Precursor m/z: 331.0433
Precursor type: [M+H]+
m/z	relative intensity	assigned
99.0076	120	C4H3O3+
127.0388	999	C6H7O3+
210.9645	13	C5H8O3PS2+
257.0064	49	C7H14O4PS2+
