Mass spectrum: Nitrofurantoin; LC-ESI-QFT; MS2; CE: 60%; R=15000; [M+H]+
Name: Nitrofurantoin
Name: 1-[(5-Nitro-2-furanyl)methylideneamino]imidazolidine-2,4-dione
Name: 1-[(5-nitrofuran-2-yl)methylideneamino]imidazolidine-2,4-dione
Formula: C8H6N4O5
Exact mass: 238.0338193
SMILES: [O-][N+](=O)C1=CC=C(O1)C=NN1CC(=O)NC1=O
InChI: InChI=1S/C8H6N4O5/c13-6-4-11(8(14)10-6)9-3-5-1-2-7(17-5)12(15)16/h1-3H,4H2,(H,10,13,14)
Instrument: Q Exactive Plus
Instrument type: LC-ESI-QFT
Ms type: MS2
Ion mode: POSITIVE
Ionization: ESI
Fragmentation mode: HCD
Collision energy: 60 % (nominal)
Resolution: 15000
Column name: XBridge C18 3.5um, 2.1x50mm, Waters
Retention time: 3.220 min
Base peak: 164.9847
Precursor m/z: 239.0411
Precursor type: [M+H]+
Precursor intensity: 8988663.19
m/z	relative intensity	assigned
53.0023	42	C3HO+
54.0339	31	C3H4N+
55.0179	17	C3H3O+
57.021	19	C2H3NO+
64.0182	62	C4H2N+
65.0386	21	C5H5+
66.0214	40	C3H2N2+
66.0339	30	C4H4N+
67.0417	963	C4H5N+
68.037	31	C3H4N2+
69.9924	14	C2NO2+
72.0081	10	C2H2NO2+
79.0179	86	C5H3O+
80.0131	64	C4H2NO+
81.0448	16	C4H5N2+
82.005	61	C4H2O2+
82.0162	24	C3H2N2O+
82.0288	45	C4H4NO+
83.0366	194	C4H5NO+
93.021	59	C5H3NO+
93.0449	209	C5H5N2+
94.0163	43	C4H2N2O+
94.0289	40	C5H4NO+
94.0527	83	C5H6N2+
95.0367	184	C5H5NO+
96.0319	49	C4H4N2O+
98.035	80	C3H4N3O+
100.0268	209	C3H4N2O2+
110.0237	35	C5H4NO2+
111.0316	141	C5H5NO2+
121.0398	115	C6H5N2O+
122.0112	999	C5H2N2O2+
126.0298	11	C4H4N3O2+
137.0347	31	C6H5N2O2+
139.0141	114	C5H3N2O3+
149.0346	93	C7H5N2O2+
151.0379	37	C6H5N3O2+
168.0406	80	C6H6N3O3+
222.0384	15	C8H6N4O4+
