Mass spectrum: Torasemidecarboxylic acid; LC-ESI-QFT; MS2; CE: 150%; R=17500; [M-H]-
Name: Torasemidecarboxylic acid
Name: Torsemide Carboxylic Acid
Name: 3-[[3-(propan-2-ylcarbamoylsulfamoyl)pyridin-4-yl]amino]benzoic acid
Formula: C16H18N4O5S
Exact mass: 378.0997907
SMILES: CC(C)NC(=O)NS(=O)(=O)C1=C(C=CN=C1)NC2=CC=CC(=C2)C(=O)O
InChI: InChI=1S/C16H18N4O5S/c1-10(2)18-16(23)20-26(24,25)14-9-17-7-6-13(14)19-12-5-3-4-11(8-12)15(21)22/h3-10H,1-2H3,(H,17,19)(H,21,22)(H2,18,20,23)
Instrument: Exploris 240 Orbitrap Thermo Scientific
Instrument type: LC-ESI-QFT
Ms type: MS2
Ion mode: NEGATIVE
Ionization: ESI
Fragmentation mode: HCD
Collision energy: 150 % (nominal)
Resolution: 17500
Column name: XBridge C18 3.5um, 2.1x50mm, Waters
Retention time: 4.449 min
Base peak: 377.0924
Precursor m/z: 377.0925
Precursor type: [M-H]-
m/z	relative intensity	assigned
50.0037	36	C3N-
56.9803	28	C2HS-
57.9757	120	CNS-
61.9706	334	NOS-
63.9625	441	O2S-
64.0194	43	C4H2N-
65.0145	178	C3HN2-
66.0348	33	C4H4N-
77.9655	999	NO2S-
78.9733	151	HNO2S-
91.0301	268	C5H3N2-
92.051	44	C6H6N-
93.0458	427	C5H5N2-
94.0298	45	C5H4NO-
108.0328	47	C5H4N2O-
140.0504	29	C10H6N-
141.0457	81	C9H5N2-
167.0616	319	C11H7N2-
