Mass spectrum: Picloram; LC-ESI-QFT; MS2; CE: 120%; R=15000; [M+H]+
Name: Picloram
Name: 4-amino-3,5,6-trichloropyridine-2-carboxylic acid
Formula: C6H3Cl3N2O2
Exact mass: 239.9260104
SMILES: C1(=C(C(=NC(=C1Cl)Cl)C(=O)O)Cl)N
InChI: InChI=1S/C6H3Cl3N2O2/c7-1-3(10)2(8)5(9)11-4(1)6(12)13/h(H2,10,11)(H,12,13)
Instrument: Exploris 240 Thermo Scientific
Instrument type: LC-ESI-QFT
Ms type: MS2
Ion mode: POSITIVE
Ionization: ESI
Fragmentation mode: HCD
Collision energy: 120 % (nominal)
Resolution: 15000
Column name: XBridge C18 3.5um, 2.1x50mm, Waters
Retention time: 3.468 min
Base peak: 240.9333
Precursor m/z: 240.9333
Precursor type: [M+H]+
m/z	relative intensity	assigned
64.0182	17	C4H2N+
73.9793	15	C2HClN+
82.9451	118	CHCl2+
97.9793	52	C4HClN+
98.9871	59	C4H2ClN+
106.9452	78	C3HCl2+
107.9403	104	C2Cl2N+
116.906	52	CCl3+
124.9901	96	C5H2ClN2+
131.9403	119	C4Cl2N+
132.9481	27	C4HCl2N+
133.9558	13	C4H2Cl2N+
140.9061	999	C3Cl3+
159.959	324	C5H2Cl2N2+
167.917	209	C4HCl3N+
