Mass spectrum: N-(3,4-Dichlorophenyl)propanamide; LC-ESI-QFT; MS2; CE: 90%; R=15000; [M-H]-
Name: N-(3,4-Dichlorophenyl)propanamide
Name: Propanil
Formula: C9H9Cl2NO
Exact mass: 217.0061193
SMILES: CCC(=O)NC1=CC=C(Cl)C(Cl)=C1
InChI: InChI=1S/C9H9Cl2NO/c1-2-9(13)12-6-3-4-7(10)8(11)5-6/h3-5H,2H2,1H3,(H,12,13)
Instrument: Q Exactive Plus
Instrument type: LC-ESI-QFT
Ms type: MS2
Ion mode: NEGATIVE
Ionization: ESI
Fragmentation mode: HCD
Collision energy: 90 % (nominal)
Resolution: 15000
Column name: XBridge C18 3.5um, 2.1x50mm, Waters
Retention time: 9.070 min
Base peak: 215.9987
Precursor m/z: 215.9988
Precursor type: [M-H]-
Precursor intensity: 233516471.4
m/z	relative intensity	assigned
88.0193	311	C6H2N-
123.996	458	C6H3ClN-
159.9725	999	C6H4Cl2N-
