Mass spectrum: Ketorolac; LC-ESI-QFT; MS2; CE: 30%; R=15000; [M+H]+
Name: Ketorolac
Name: 5-(phenylcarbonyl)-2,3-dihydro-1H-pyrrolizine-1-carboxylic acid
Formula: C15H13NO3
Exact mass: 255.0895433
SMILES: C1CN2C(=CC=C2C(=O)C3=CC=CC=C3)C1C(=O)O
InChI: InChI=1S/C15H13NO3/c17-14(10-4-2-1-3-5-10)13-7-6-12-11(15(18)19)8-9-16(12)13/h1-7,11H,8-9H2,(H,18,19)
Instrument: Exploris 240 Thermo Scientific
Instrument type: LC-ESI-QFT
Ms type: MS2
Ion mode: POSITIVE
Ionization: ESI
Fragmentation mode: HCD
Collision energy: 30 % (nominal)
Resolution: 15000
Column name: XBridge C18 3.5um, 2.1x50mm, Waters
Retention time: 6.898 min
Base peak: 256.0964
Precursor m/z: 256.0968
Precursor type: [M+H]+
m/z	relative intensity	assigned
95.0491	72	C6H7O+
105.0334	999	C7H5O+
106.0649	10	C7H8N+
178.0499	49	C9H8NO3+
