Mass spectrum: Thiazopyr; LC-ESI-QFT; MS2; CE: 75%; R=15000; [M+H]+
Name: Thiazopyr
Name: methyl 2-(difluoromethyl)-5-(4,5-dihydro-1,3-thiazol-2-yl)-4-(2-methylpropyl)-6-(trifluoromethyl)pyridine-3-carboxylate
Formula: C16H17F5N2O2S
Exact mass: 396.0930899
SMILES: COC(=O)C1=C(CC(C)C)C(C2=NCCS2)=C(N=C1C(F)F)C(F)(F)F
InChI: InChI=1S/C16H17F5N2O2S/c1-7(2)6-8-9(15(24)25-3)11(13(17)18)23-12(16(19,20)21)10(8)14-22-4-5-26-14/h7,13H,4-6H2,1-3H3
Instrument: Q Exactive Plus
Instrument type: LC-ESI-QFT
Ms type: MS2
Ion mode: POSITIVE
Ionization: ESI
Fragmentation mode: HCD
Collision energy: 75 % (nominal)
Resolution: 15000
Column name: XBridge C18 3.5um, 2.1x50mm, Waters
Retention time: 11.443 min
Base peak: 397.1005
Precursor m/z: 397.1004
Precursor type: [M+H]+
Precursor intensity: 1271256978.97
m/z	relative intensity	assigned
58.995	79	C2H3S+
60.0028	89	C2H4S+
61.0106	999	C2H5S+
76.0215	23	C2H6NS+
154.0651	57	C11H8N+
155.0604	43	C10H7N2+
172.0557	24	C11H7FN+
173.0168	23	C9H5N2S+
174.0714	130	C11H9FN+
186.0584	48	C8H12NO2S+
187.0669	18	C11H8FN2+
190.0466	29	C11H6F2N+
191.0413	51	C10H5F2N2+
192.0813	75	C11H11FNO+
193.0217	44	C6H4F3N2O2+
195.0166	31	C9H2F3N2+
197.0512	54	C12H6FN2+
203.0603	18	C14H7N2+
204.0139	32	C10H2F2N2O+
205.0561	17	C8H12FNO2S+
206.0646	78	C8H13FNO2S+
208.0031	58	C10H4F2NS+
211.0132	28	C9H5F2N2S+
213.0277	65	C9H4F3N2O+
214.9882	58	C8H2F3N2S+
215.0612	16	C12H8FN2O+
219.0376	53	C8H6F3N2O2+
221.0173	54	C13H5N2S+
222.0724	46	C12H10F2NO+
225.0288	113	C7H5F4N2O2+
229.0039	43	C9H4F3N2S+
230.0121	71	C9H5F3N2S+
232.9992	25	C8H4F3N2OS+
233.0331	33	C9H5F4N2O+
233.0534	23	C9H8F3N2O2+
234.0604	34	C12H8F2N2O+
235.0135	86	C11H5F2N2S+
235.0672	31	C15H8FN2+
236.9935	50	C10H3F2N2OS+
239.0435	36	C8H7F4N2O2+
242.9828	90	C12HF2N2S+
243.0197	128	C10H6F3N2S+
245.9859	24	C9H2F4N2S+
246.9948	50	C9H3F4N2S+
248.001	82	C14HFN2O2+
249.0106	17	C9H5F4N2S+
249.0837	54	C13H11F2N2O+
251.0086	60	C11H5F2N2OS+
252.0167	50	C11H6F2N2OS+
255.0191	150	C16H3N2O2+
256.0036	80	C11H5F3NOS+
256.0274	13	C11H7F3N2S+
262.0181	35	C10H6F4N2S+
264.9875	26	C11H3F2N2O2S+
271.0147	433	C11H6F3N2OS+
275.0259	511	C11H7F4N2S+
276.0347	236	C11H8F4N2S+
288.03	30	C12H9F3NO2S+
291.021	78	C11H7F4N2OS+
299.01	196	C12H6F3N2O2S+
300.0176	131	C12H7F3N2O2S+
303.0208	118	C12H7F4N2OS+
319.0159	311	C12H7F4N2O2S+
