Mass spectrum: Edoxaban; LC-ESI-QFT; MS2; CE: 45%; R=15000; [M+H]+
Name: Edoxaban
Name: Edoxaban impurity 5
Name: N`-(5-chloranylpyridin-2-yl)-N-[(1S,2R,4S)-4-(dimethylcarbamoyl)-2-[(5-methyl-6,7-dihydro-4H-[1,3]thiazolo[5,4-c]pyridin-2-yl)carbonylamino]cyclohexyl]ethanediamide
Formula: C24H30ClN7O4S
Exact mass: 547.1768511
SMILES: CN1CCC2=C(C1)SC(=N2)C(=O)NC3CC(CCC3NC(=O)C(=O)NC4=NC=C(C=C4)Cl)C(=O)N(C)C
InChI: InChI=1S/C24H30ClN7O4S/c1-31(2)24(36)13-4-6-15(27-20(33)21(34)30-19-7-5-14(25)11-26-19)17(10-13)28-22(35)23-29-16-8-9-32(3)12-18(16)37-23/h5,7,11,13,15,17H,4,6,8-10,12H2,1-3H3,(H,27,33)(H,28,35)(H,26,30,34)
Instrument: Q Exactive
Instrument type: LC-ESI-QFT
Ms type: MS2
Ion mode: POSITIVE
Ionization: ESI
Fragmentation mode: HCD
Collision energy: 45 % (nominal)
Resolution: 15000
Column name: XBridge C18 3.5um, 2.1x50mm, Waters
Retention time: 4.818 min
Base peak: 548.1841
Precursor m/z: 548.1841
Precursor type: [M+H]+
Precursor intensity: 580986582.02
m/z	relative intensity	assigned
72.0444	999	C3H6NO+
79.0541	51	C6H7+
94.0653	52	C6H8N+
95.0728	11	C6H9N+
96.0809	212	C6H10N+
107.0492	131	C7H7O+
112.0214	117	C5H6NS+
122.0602	64	C7H8NO+
124.0758	154	C7H10NO+
129.0214	121	C5H6ClN2+
130.0054	36	C5H5ClNO+
152.1071	851	C9H14NO+
153.0481	547	C7H9N2S+
155.0007	551	C6H4ClN2O+
155.0637	93	C7H11N2S+
167.1177	41	C9H15N2O+
169.1335	162	C9H17N2O+
182.9955	61	C7H4ClN2O2+
190.0686	59	C11H12NS+
195.1128	134	C10H15N2O2+
198.0697	63	C8H12N3OS+
199.0535	230	C8H11N2O2S+
205.0797	74	C11H13N2S+
232.0895	60	C12H14N3S+
233.0741	162	C12H13N2OS+
238.1186	17	C11H16N3O3+
250.1009	85	C12H16N3OS+
261.0691	66	C10H16ClN3OS+
275.1322	65	C14H19N4S+
276.1164	464	C11H21ClN4S+
293.1432	27	C14H21N4OS+
305.1434	58	C12H24ClN5S+
306.126	54	C10H21ClN7S+
348.1848	77	C21H29ClO2+
349.1696	32	C14H28ClN5OS+
