Mass spectrum: Acyclovir; LC-ESI-QFT; MS2; CE: 180%; R=17500; [M+H]+
Name: Acyclovir
Name: 2-amino-9-(2-hydroxyethoxymethyl)-3H-purin-6-one
Formula: C8H11N5O3
Exact mass: 225.0861892
SMILES: C1=NC2=C(N1COCCO)N=C(NC2=O)N
InChI: InChI=1S/C8H11N5O3/c9-8-11-6-5(7(15)12-8)10-3-13(6)4-16-2-1-14/h3,14H,1-2,4H2,(H3,9,11,12,15)
Instrument: Exploris 240 Orbitrap Thermo Scientific
Instrument type: LC-ESI-QFT
Ms type: MS2
Ion mode: POSITIVE
Ionization: ESI
Fragmentation mode: HCD
Collision energy: 180 % (nominal)
Resolution: 17500
Column name: XBridge C18 3.5um, 2.1x50mm, Waters
Retention time: 1.177 min
Base peak: 144.9877
Precursor m/z: 226.0935
Precursor type: [M+H]+
m/z	relative intensity	assigned
53.0135	385	C2HN2+
55.0291	999	C2H3N2+
65.0134	233	C3HN2+
67.0291	35	C3H3N2+
68.0245	100	C2H2N3+
80.0242	324	C3H2N3+
82.0403	53	C3H4N3+
93.0085	56	C4HN2O+
110.0349	51	C4H4N3O+
