Mass spectrum: Fuberidazole; LC-ESI-QFT; MS2; CE: 75%; R=15000; [M+H]+
Name: Fuberidazole
Name: 2-(furan-2-yl)-1H-benzimidazole
Formula: C11H8N2O
Exact mass: 184.0636629
SMILES: C1=CC=C2C(=C1)NC(=N2)C3=CC=CO3
InChI: InChI=1S/C11H8N2O/c1-2-5-9-8(4-1)12-11(13-9)10-6-3-7-14-10/h1-7H,(H,12,13)
Instrument: Exploris 240 Thermo Scientific
Instrument type: LC-ESI-QFT
Ms type: MS2
Ion mode: POSITIVE
Ionization: ESI
Fragmentation mode: HCD
Collision energy: 75 % (nominal)
Resolution: 15000
Column name: XBridge C18 3.5um, 2.1x50mm, Waters
Retention time: 3.518 min
Base peak: 185.0706
Precursor m/z: 185.0709
Precursor type: [M+H]+
m/z	relative intensity	assigned
92.0495	33	C6H6N+
131.0605	14	C8H7N2+
156.0681	294	C10H8N2+
157.0759	999	C10H9N2+
185.0707	499	C11H9N2O+
