Mass spectrum: Procymidone; LC-ESI-QFT; MS2; CE: 60%; R=15000; [M+H]+
Name: Procymidone
Name: 3-(3,5-dichlorophenyl)-1,5-dimethyl-3-azabicyclo[3.1.0]hexane-2,4-dione
Formula: C13H11Cl2NO2
Exact mass: 283.016684
SMILES: CC12CC1(C)C(=O)N(C2=O)C1=CC(Cl)=CC(Cl)=C1
InChI: InChI=1S/C13H11Cl2NO2/c1-12-6-13(12,2)11(18)16(10(12)17)9-4-7(14)3-8(15)5-9/h3-5H,6H2,1-2H3
Instrument: Q Exactive Plus
Instrument type: LC-ESI-QFT
Ms type: MS2
Ion mode: POSITIVE
Ionization: ESI
Fragmentation mode: HCD
Collision energy: 60 % (nominal)
Resolution: 15000
Column name: XBridge C18 3.5um, 2.1x50mm, Waters
Retention time: 10.266 min
Base peak: 164.9846
Precursor m/z: 284.024
Precursor type: [M+H]+
Precursor intensity: 4449333.2
m/z	relative intensity	assigned
65.0386	110	C5H5+
67.0543	999	C5H7+
69.0699	82	C5H9+
85.0647	54	C5H9O+
95.0492	368	C6H7O+
113.0597	62	C6H9O2+
151.0182	38	C8H6ClN+
159.9719	31	C6H4Cl2N+
165.0343	39	C9H8ClN+
168.0811	21	C12H10N+
171.9716	150	C7H4Cl2N+
172.9665	54	C9ClNO+
178.0418	135	C10H9ClN+
185.9872	236	C8H6Cl2N+
192.0574	55	C11H11ClN+
193.0652	42	C11H12ClN+
197.9871	60	C9H6Cl2N+
200.0034	22	C9H8Cl2N+
203.0499	35	C12H10ClN+
212.0031	100	C10H8Cl2N+
228.0338	55	C11H12Cl2N+
238.0184	189	C12H10Cl2N+
256.029	46	C12H12Cl2NO+
