Mass spectrum: Bifenazate; LC-ESI-QFT; MS2; CE: 45%; R=15000; [M+H]+
Name: Bifenazate
Name: propan-2-yl N-(2-methoxy-5-phenylanilino)carbamate
Formula: C17H20N2O3
Exact mass: 300.1473925
SMILES: CC(C)OC(=O)NNC1=C(C=CC(=C1)C2=CC=CC=C2)OC
InChI: InChI=1S/C17H20N2O3/c1-12(2)22-17(20)19-18-15-11-14(9-10-16(15)21-3)13-7-5-4-6-8-13/h4-12,18H,1-3H3,(H,19,20)
Instrument: Exploris 240 Thermo Scientific
Instrument type: LC-ESI-QFT
Ms type: MS2
Ion mode: POSITIVE
Ionization: ESI
Fragmentation mode: HCD
Collision energy: 45 % (nominal)
Resolution: 15000
Column name: XBridge C18 3.5um, 2.1x50mm, Waters
Retention time: 9.760 min
Base peak: 198.091
Precursor m/z: 301.1547
Precursor type: [M+H]+
m/z	relative intensity	assigned
143.0855	32	C11H11+
152.0619	22	C12H8+
153.0697	147	C12H9+
168.0806	51	C12H10N+
169.0884	30	C12H11N+
170.0962	999	C12H12N+
183.0909	20	C12H11N2+
184.0756	54	C12H10NO+
196.0754	30	C13H10NO+
198.0911	165	C13H12NO+
199.0988	127	C13H13NO+
