Mass spectrum: Dorzolamide; LC-ESI-QFT; MS2; CE: 80%; R=15000; [M+H]+
Name: Dorzolamide
Name: (4S,6S)-4-(ethylamino)-6-methyl-7,7-bis(oxidanylidene)-5,6-dihydro-4H-thieno[2,3-b]thiopyran-2-sulfonamide
Name: 4-(ethylamino)-6-methyl-7,7-dioxo-5,6-dihydro-4H-thieno[2,3-b]thiopyran-2-sulfonamide
Formula: C10H16N2O4S3
Exact mass: 324.02722
SMILES: CCNC1CC(S(=O)(=O)C2=C1C=C(S2)S(=O)(=O)N)C
InChI: InChI=1S/C10H16N2O4S3/c1-3-12-8-4-6(2)18(13,14)10-7(8)5-9(17-10)19(11,15)16/h5-6,8,12H,3-4H2,1-2H3,(H2,11,15,16)
Instrument: Exploris 240 Thermo Scientific
Instrument type: LC-ESI-QFT
Ms type: MS2
Ion mode: POSITIVE
Ionization: ESI
Fragmentation mode: HCD
Collision energy: 80 % (nominal)
Resolution: 15000
Column name: XBridge C18 3.5um, 2.1x50mm, Waters
Retention time: 1.509 min
Base peak: 325.0341
Precursor m/z: 325.0345
Precursor type: [M+H]+
m/z	relative intensity	assigned
51.023	213	C4H3+
63.0229	126	C5H3+
63.9851	27	H2NOS+
65.0386	999	C5H5+
68.9794	430	C3HS+
69.9872	49	C3H2S+
70.9949	116	C3H3S+
76.0306	25	C6H4+
77.0386	84	C6H5+
79.0544	29	C6H7+
82.9951	36	C4H3S+
84.0032	48	C4H4S+
89.0387	218	C7H5+
90.0466	113	C7H6+
91.0543	814	C7H7+
94.995	258	C5H3S+
95.049	106	C6H7O+
102.0466	64	C8H6+
105.0449	40	C6H5N2+
108.003	60	C6H4S+
121.0111	52	C7H5S+
134.0184	165	C8H6S+
135.0263	20	C8H7S+
202.0778	534	C8H14N2O2S+
