Mass spectrum: Quinine; LC-ESI-QFT; MS2; CE: 180%; R=17500; [M+H]+
Name: Quinine
Name: Cinchonan-9-ol, 6`-methoxy-, (8alpha,9R)-
Name: (5-ethenyl-1-azabicyclo[2.2.2]octan-2-yl)-(6-methoxyquinolin-4-yl)methanol
Formula: C20H24N2O2
Exact mass: 324.183778
SMILES: COC1=CC2=C(C=CN=C2C=C1)C(C3CC4CCN3CC4C=C)O
InChI: InChI=1S/C20H24N2O2/c1-3-13-12-22-9-7-14(13)10-19(22)20(23)16-6-8-21-18-5-4-15(24-2)11-17(16)18/h3-6,8,11,13-14,19-20,23H,1,7,9-10,12H2,2H3
Instrument: Exploris 240 Orbitrap Thermo Scientific
Instrument type: LC-ESI-QFT
Ms type: MS2
Ion mode: POSITIVE
Ionization: ESI
Fragmentation mode: HCD
Collision energy: 180 % (nominal)
Resolution: 17500
Column name: XBridge C18 3.5um, 2.1x50mm, Waters
Retention time: 4.008 min
Base peak: 325.1906
Precursor m/z: 325.1911
Precursor type: [M+H]+
m/z	relative intensity	assigned
51.0229	532	C4H3+
53.0385	744	C4H5+
55.0543	207	C4H7+
56.0496	66	C3H6N+
65.0386	525	C5H5+
66.0464	142	C5H6+
67.0417	197	C4H5N+
67.0544	134	C5H7+
68.0495	257	C4H6N+
75.0232	128	C6H3+
77.0386	999	C6H5+
78.0464	240	C6H6+
79.0542	335	C6H7+
80.0494	442	C5H6N+
82.0653	147	C5H8N+
88.0307	227	C7H4+
89.0385	777	C7H5+
90.0463	552	C7H6+
91.0542	279	C7H7+
93.0573	101	C6H7N+
95.0491	384	C6H7O+
102.0463	610	C8H6+
103.0544	162	C8H7+
105.0447	301	C6H5N2+
114.0463	116	C9H6+
115.0544	618	C9H7+
116.0496	156	C8H6N+
117.0572	944	C8H7N+
127.0546	214	C10H7+
128.0494	309	C9H6N+
129.0575	137	C9H7N+
130.0654	233	C9H8N+
139.0542	191	C11H7+
140.0492	249	C10H6N+
141.0572	440	C10H7N+
142.0655	280	C10H8N+
153.0573	65	C11H7N+
154.065	482	C11H8N+
155.0603	170	C10H7N2+
166.0653	195	C12H8N+
167.0734	160	C12H9N+
191.0726	83	C14H9N+
204.0815	66	C15H10N+
