Mass spectrum: Sulfentrazone; LC-ESI-QFT; MS2; CE: 15%; R=15000; [M+H]+
Name: Sulfentrazone
Name: N-[2,4-dichloro-5-[4-(difluoromethyl)-3-methyl-5-oxo-1,2,4-triazol-1-yl]phenyl]methanesulfonamide
Formula: C11H10Cl2F2N4O3S
Exact mass: 385.981873
SMILES: CC1=NN(C(=O)N1C(F)F)C1=CC(NS(C)(=O)=O)=C(Cl)C=C1Cl
InChI: InChI=1S/C11H10Cl2F2N4O3S/c1-5-16-19(11(20)18(5)10(14)15)9-4-8(17-23(2,21)22)6(12)3-7(9)13/h3-4,10,17H,1-2H3
Instrument: Q Exactive Plus
Instrument type: LC-ESI-QFT
Ms type: MS2
Ion mode: POSITIVE
Ionization: ESI
Fragmentation mode: HCD
Collision energy: 15 % (nominal)
Resolution: 15000
Column name: XBridge C18 3.5um, 2.1x50mm, Waters
Retention time: 6.517 min
Base peak: 386.9893
Precursor m/z: 386.9891
Precursor type: [M+H]+
Precursor intensity: 79056822.8
m/z	relative intensity	assigned
306.9959	23	C10H7Cl2F2N4O+
308.0035	13	C10H8Cl2F2N4O+
386.9891	999	C11H11Cl2F2N4O3S+
