Mass spectrum: Torasemidecarboxylic acid; LC-ESI-QFT; MS2; CE: 150%; R=17500; [M+H]+
Name: Torasemidecarboxylic acid
Name: Torsemide Carboxylic Acid
Name: 3-[[3-(propan-2-ylcarbamoylsulfamoyl)pyridin-4-yl]amino]benzoic acid
Formula: C16H18N4O5S
Exact mass: 378.0997907
SMILES: CC(C)NC(=O)NS(=O)(=O)C1=C(C=CN=C1)NC2=CC=CC(=C2)C(=O)O
InChI: InChI=1S/C16H18N4O5S/c1-10(2)18-16(23)20-26(24,25)14-9-17-7-6-13(14)19-12-5-3-4-11(8-12)15(21)22/h3-10H,1-2H3,(H,17,19)(H,21,22)(H2,18,20,23)
Instrument: Exploris 240 Orbitrap Thermo Scientific
Instrument type: LC-ESI-QFT
Ms type: MS2
Ion mode: POSITIVE
Ionization: ESI
Fragmentation mode: HCD
Collision energy: 150 % (nominal)
Resolution: 17500
Column name: XBridge C18 3.5um, 2.1x50mm, Waters
Retention time: 4.459 min
Base peak: 379.1067
Precursor m/z: 379.1071
Precursor type: [M+H]+
m/z	relative intensity	assigned
51.0229	24	C4H3+
63.0229	125	C5H3+
65.0385	155	C5H5+
67.0415	13	C4H5N+
75.0231	47	C6H3+
77.0387	34	C6H5+
78.0339	30	C5H4N+
79.0418	22	C5H5N+
87.023	27	C7H3+
88.0308	61	C7H4+
89.0385	450	C7H5+
90.0342	19	C6H4N+
90.0464	92	C7H6+
91.054	14	C7H7+
101.0387	31	C8H5+
102.0464	11	C8H6+
113.0386	269	C9H5+
114.0342	101	C8H4N+
114.0466	189	C9H6+
115.0429	52	C2H11O3S+
115.0542	999	C9H7+
116.0495	110	C8H6N+
117.0572	109	C8H7N+
128.0495	56	C9H6N+
129.0447	35	C8H5N2+
132.0573	12	C9H8O+
139.0416	49	C10H5N+
140.0495	655	C10H6N+
141.0449	15	C9H5N2+
141.0573	161	C10H7N+
142.0525	33	C9H6N2+
142.0653	26	C10H8N+
166.0527	109	C11H6N2+
167.0604	127	C11H7N2+
168.0681	176	C11H8N2+
169.0761	61	C11H9N2+
