Mass spectrum: Prothioconazole; LC-ESI-QFT; MS2; CE: 120%; R=15000; [M+H]+
Name: Prothioconazole
Name: 2-[2-(1-chlorocyclopropyl)-3-(2-chlorophenyl)-2-hydroxypropyl]-1H-1,2,4-triazole-3-thione
Formula: C14H15Cl2N3OS
Exact mass: 343.0312885
SMILES: C1CC1(C(CC2=CC=CC=C2Cl)(CN3C(=S)N=CN3)O)Cl
InChI: InChI=1S/C14H15Cl2N3OS/c15-11-4-2-1-3-10(11)7-14(20,13(16)5-6-13)8-19-12(21)17-9-18-19/h1-4,9,20H,5-8H2,(H,17,18,21)
Instrument: Exploris 240 Thermo Scientific
Instrument type: LC-ESI-QFT
Ms type: MS2
Ion mode: POSITIVE
Ionization: ESI
Fragmentation mode: HCD
Collision energy: 120 % (nominal)
Resolution: 15000
Column name: XBridge C18 3.5um, 2.1x50mm, Waters
Retention time: 11.770 min
Base peak: 344.0382
Precursor m/z: 344.0386
Precursor type: [M+H]+
m/z	relative intensity	assigned
53.0386	35	C4H5+
55.029	66	C2H3N2+
63.0228	83	C5H3+
65.0385	76	C5H5+
72.9839	36	C3H2Cl+
77.0387	54	C6H5+
89.0385	598	C7H5+
90.0464	225	C7H6+
98.9995	317	C5H4Cl+
102.012	154	C2H4N3S+
105.0449	25	C6H5N2+
114.0465	63	C9H6+
115.0541	215	C9H7+
125.0151	789	C7H6Cl+
126.0462	137	C10H6+
127.0539	99	C10H7+
128.0619	364	C10H8+
141.0701	46	C11H9+
145.0649	55	C10H9O+
149.0151	206	C9H6Cl+
151.0546	44	C12H7+
152.0618	659	CH15ClN3OS+
153.0697	999	CH16ClN3OS+
155.0602	124	C10H7N2+
162.023	198	C10H7Cl+
169.0648	42	C12H9O+
