Mass spectrum: Allylthiourea; LC-ESI-QFT; MS2; CE: 15%; R=15000; [M+H]+
Name: Allylthiourea
Name: CID 7995
Name: N`-prop-2-enylcarbamimidothioic acid
Formula: C4H8N2S
Exact mass: 116.0408193
SMILES: C=CCNC(=S)N
InChI: InChI=1S/C4H8N2S/c1-2-3-6-4(5)7/h2H,1,3H2,(H3,5,6,7)
Instrument: Q Exactive Plus
Instrument type: LC-ESI-QFT
Ms type: MS2
Ion mode: POSITIVE
Ionization: ESI
Fragmentation mode: HCD
Collision energy: 15 % (nominal)
Resolution: 15000
Column name: XBridge C18 3.5um, 2.1x50mm, Waters
Retention time: 2.019 min
Base peak: 117.0481
Precursor m/z: 117.0481
Precursor type: [M+H]+
Precursor intensity: 285598085.22
m/z	relative intensity	assigned
58.0651	999	C3H8N+
59.9902	106	CH2NS+
67.0416	152	C4H5N+
73.0107	17	C3H5S+
100.0215	384	C4H6NS+
117.048	966	C4H9N2S+
