Mass spectrum: Hymexazol; LC-ESI-QFT; MS2; CE: 90%; R=15000; [M+H]+
Name: Hymexazol
Name: 5-methyl-1,2-oxazol-3-one
Formula: C4H5NO2
Exact mass: 99.0320284
SMILES: CC1=CC(=O)NO1
InChI: InChI=1S/C4H5NO2/c1-3-2-4(6)5-7-3/h2H,1H3,(H,5,6)
Instrument: Exploris 240 Thermo Scientific
Instrument type: LC-ESI-QFT
Ms type: MS2
Ion mode: POSITIVE
Ionization: ESI
Fragmentation mode: HCD
Collision energy: 90 % (nominal)
Resolution: 15000
Column name: XBridge C18 3.5um, 2.1x50mm, Waters
Retention time: 2.158 min
Base peak: 100.0392
Precursor m/z: 100.0393
Precursor type: [M+H]+
m/z	relative intensity	assigned
43.0179	147	C2H3O+
44.0131	146	CH2NO+
44.0495	247	C2H6N+
54.0338	742	C3H4N+
55.0179	67	C3H3O+
56.0494	66	C3H6N+
72.0445	41	C3H6NO+
100.0393	999	C4H6NO2+
