Mass spectrum: Triasulfuron; LC-ESI-QFT; MS2; CE: 60%; R=15000; [M+H]+
Name: Triasulfuron
Name: 1-[2-(2-chloroethoxy)phenyl]sulfonyl-3-(4-methoxy-6-methyl-1,3,5-triazin-2-yl)urea
Formula: C14H16ClN5O5S
Exact mass: 401.0560673
SMILES: CC1=NC(=NC(=N1)OC)NC(=O)NS(=O)(=O)C2=CC=CC=C2OCCCl
InChI: InChI=1S/C14H16ClN5O5S/c1-9-16-12(19-14(17-9)24-2)18-13(21)20-26(22,23)11-6-4-3-5-10(11)25-8-7-15/h3-6H,7-8H2,1-2H3,(H2,16,17,18,19,20,21)
Instrument: Exploris 240 Thermo Scientific
Instrument type: LC-ESI-QFT
Ms type: MS2
Ion mode: POSITIVE
Ionization: ESI
Fragmentation mode: HCD
Collision energy: 60 % (nominal)
Resolution: 15000
Column name: XBridge C18 3.5um, 2.1x50mm, Waters
Retention time: 5.566 min
Base peak: 402.063
Precursor m/z: 402.0633
Precursor type: [M+H]+
m/z	relative intensity	assigned
56.0494	605	C3H6N+
57.0447	168	C2H5N2+
58.0287	155	C2H4NO+
62.9995	367	C2H4Cl+
65.0384	73	C5H5+
69.0083	101	C2HN2O+
77.0384	44	C6H5+
83.0239	181	C3H3N2O+
85.0394	43	C3H5N2O+
91.0541	416	C7H7+
95.0492	18	C6H7O+
97.0106	25	C5H5S+
100.0504	60	C3H6N3O+
109.0106	40	C6H5S+
113.0054	342	C5H5OS+
119.0492	37	C8H7O+
119.0603	19	C7H7N2+
120.0569	56	C8H8O+
121.0282	405	C7H5O2+
125.0055	34	C6H5OS+
125.0152	20	C7H6Cl+
129.0102	14	C6H6ClO+
137.0053	686	C7H5OS+
139.0058	19	C6H4ClN2+
141.0002	224	C6H5O2S+
141.0769	999	C5H9N4O+
167.0561	994	C6H7N4O2+
183.0116	32	C8H7O3S+
