Mass spectrum: 2,4-Bis(isopropylamino)-6-chloro-1,3,5-triazine; LC-ESI-QFT; MS2; CE: 45%; R=15000; [M+H]+
Name: 2,4-Bis(isopropylamino)-6-chloro-1,3,5-triazine
Name: Propazine
Name: 6-chloro-2-N,4-N-di(propan-2-yl)-1,3,5-triazine-2,4-diamine
Formula: C9H16ClN5
Exact mass: 229.1094232
SMILES: CC(C)NC1=NC(NC(C)C)=NC(Cl)=N1
InChI: InChI=1S/C9H16ClN5/c1-5(2)11-8-13-7(10)14-9(15-8)12-6(3)4/h5-6H,1-4H3,(H2,11,12,13,14,15)
Instrument: Q Exactive Plus
Instrument type: LC-ESI-QFT
Ms type: MS2
Ion mode: POSITIVE
Ionization: ESI
Fragmentation mode: HCD
Collision energy: 45 % (nominal)
Resolution: 15000
Column name: XBridge C18 3.5um, 2.1x50mm, Waters
Retention time: 8.706 min
Base peak: 230.1169
Precursor m/z: 230.1167
Precursor type: [M+H]+
Precursor intensity: 1171239341.19
m/z	relative intensity	assigned
68.0243	40	C2H2N3+
79.0058	35	CH4ClN2+
104.001	108	C2H3ClN3+
110.0462	29	C3H4N5+
110.0715	29	C5H8N3+
146.0228	959	C3H5ClN5+
188.0697	999	C6H11ClN5+
230.1167	364	C9H17ClN5+
