Mass spectrum: Meropenem; LC-ESI-QFT; MS2; CE: 75%; R=15000; [M+H]+
Name: Meropenem
Name: 3-[5-(dimethylcarbamoyl)pyrrolidin-3-yl]sulfanyl-6-(1-hydroxyethyl)-4-methyl-7-oxo-1-azabicyclo[3.2.0]hept-2-ene-2-carboxylic acid
Formula: C17H25N3O5S
Exact mass: 383.1514919
SMILES: CC1C2C(C(=O)N2C(=C1SC3CC(NC3)C(=O)N(C)C)C(=O)O)C(C)O
InChI: InChI=1S/C17H25N3O5S/c1-7-12-11(8(2)21)16(23)20(12)13(17(24)25)14(7)26-9-5-10(18-6-9)15(22)19(3)4/h7-12,18,21H,5-6H2,1-4H3,(H,24,25)
Instrument: Exploris 240 Thermo Scientific
Instrument type: LC-ESI-QFT
Ms type: MS2
Ion mode: POSITIVE
Ionization: ESI
Fragmentation mode: HCD
Collision energy: 75 % (nominal)
Resolution: 15000
Column name: XBridge C18 3.5um, 2.1x50mm, Waters
Retention time: 2.456 min
Base peak: 384.1589
Precursor m/z: 384.1588
Precursor type: [M+H]+
m/z	relative intensity	assigned
67.0416	17	C4H5N+
68.0495	999	C4H6N+
70.0651	49	C4H8N+
72.0444	37	C3H6NO+
73.076	52	C3H9N2+
74.0601	24	C3H8NO+
81.0336	10	C5H5O+
81.0574	82	C5H7N+
82.0652	21	C5H8N+
100.0215	87	C4H6NS+
101.071	32	C4H9N2O+
112.0216	62	C5H6NS+
114.0372	157	C5H8NS+
124.076	13	C7H10NO+
126.091	15	C7H12NO+
138.0374	10	C7H8NS+
140.0163	22	C6H6NOS+
149.0295	10	C8H7NS+
164.0529	25	C9H10NS+
