Mass spectrum: Piperine; LC-ESI-QFT; MS2; CE: 120%; R=17500; [M+H]+
Name: Piperine
Name: Piperidine, 1-(5-(1,3-benzodioxol-5-yl)-1-oxo-2,4-pentadienyl)-
Name: 5-(1,3-benzodioxol-5-yl)-1-piperidin-1-ylpenta-2,4-dien-1-one
Formula: C17H19NO3
Exact mass: 285.1364935
SMILES: C1CCN(CC1)C(=O)C=CC=CC2=CC3=C(C=C2)OCO3
InChI: InChI=1S/C17H19NO3/c19-17(18-10-4-1-5-11-18)7-3-2-6-14-8-9-15-16(12-14)21-13-20-15/h2-3,6-9,12H,1,4-5,10-11,13H2
Instrument: Exploris 240 Orbitrap Thermo Scientific
Instrument type: LC-ESI-QFT
Ms type: MS2
Ion mode: POSITIVE
Ionization: ESI
Fragmentation mode: HCD
Collision energy: 120 % (nominal)
Resolution: 17500
Column name: XBridge C18 3.5um, 2.1x50mm, Waters
Retention time: 9.631 min
Base peak: 286.1434
Precursor m/z: 286.1438
Precursor type: [M+H]+
m/z	relative intensity	assigned
51.0229	20	C4H3+
53.0385	4	C4H5+
55.0179	5	C3H3O+
63.0231	6	C5H3+
65.0386	28	C5H5+
69.0699	12	C5H9+
77.0385	100	C6H5+
79.0542	17	C6H7+
80.0494	12	C5H6N+
81.0572	5	C5H7N+
84.0808	5	C5H10N+
89.0385	72	C7H5+
91.0542	14	C7H7+
95.0491	14	C6H7O+
103.0541	30	C8H7+
105.0333	21	C7H5O+
115.0542	999	C9H7+
135.0441	42	C8H7O2+
143.049	35	C10H7O+
