Mass spectrum: Sulfentrazone; LC-ESI-QFT; MS2; CE: 60%; R=15000; [M-H]-
Name: Sulfentrazone
Name: N-[2,4-dichloro-5-[4-(difluoromethyl)-3-methyl-5-oxo-1,2,4-triazol-1-yl]phenyl]methanesulfonamide
Formula: C11H10Cl2F2N4O3S
Exact mass: 385.981873
SMILES: CC1=NN(C(=O)N1C(F)F)C1=CC(NS(C)(=O)=O)=C(Cl)C=C1Cl
InChI: InChI=1S/C11H10Cl2F2N4O3S/c1-5-16-19(11(20)18(5)10(14)15)9-4-8(17-23(2,21)22)6(12)3-7(9)13/h3-4,10,17H,1-2H3
Instrument: Q Exactive Plus
Instrument type: LC-ESI-QFT
Ms type: MS2
Ion mode: NEGATIVE
Ionization: ESI
Fragmentation mode: HCD
Collision energy: 60 % (nominal)
Resolution: 15000
Column name: XBridge C18 3.5um, 2.1x50mm, Waters
Retention time: 6.498 min
Base peak: 384.9746
Precursor m/z: 384.9746
Precursor type: [M-H]-
Precursor intensity: 116507073.09
m/z	relative intensity	assigned
63.9625	43	O2S-
70.946	14	Cl2H-
71.0052	37	C2FN2-
76.9703	99	CHO2S-
82.041	20	C3H4N3-
91.0113	35	C2HF2N2-
100.0065	28	C6N2-
101.0144	18	C6HN2-
126.0098	31	C7N3-
128.0267	54	C9H4O-
140.0258	25	C8H2N3-
146.0162	15	CH9ClN3OS-
148.0328	68	C4H4F2N3O-
148.9914	11	C7H2ClN2-
164.9861	24	C7H2ClN2O-
166.9817	71	C7HClFN2-
171.9601	112	C6H2Cl2N2-
178.0176	25	C8H5ClN3-
182.9519	13	C7HCl2N2-
184.0389	14	C9H4N4O-
189.9813	129	C8HClN3O-
196.9555	15	C7HCl2N3-
198.9471	999	C7HCl2N2O-
199.9551	199	C7H2Cl2N2O-
200.963	62	C7H3Cl2N2O-
203.9964	38	C9H3ClN3O-
212.9632	47	C3ClF2N4O3-
213.9938	17	C11H3ClN2O-
221.0239	61	C9H6ClN4O-
225.958	278	C8H2Cl2N3O-
231.0001	134	C8H8ClN2O2S-
239.9737	260	C9H4Cl2N3O-
306.9973	109	C10H7Cl2F2N4O-
