Mass spectrum: Torasemidecarboxylic acid; LC-ESI-QFT; MS2; CE: 180%; R=17500; [M+H]+
Name: Torasemidecarboxylic acid
Name: Torsemide Carboxylic Acid
Name: 3-[[3-(propan-2-ylcarbamoylsulfamoyl)pyridin-4-yl]amino]benzoic acid
Formula: C16H18N4O5S
Exact mass: 378.0997907
SMILES: CC(C)NC(=O)NS(=O)(=O)C1=C(C=CN=C1)NC2=CC=CC(=C2)C(=O)O
InChI: InChI=1S/C16H18N4O5S/c1-10(2)18-16(23)20-26(24,25)14-9-17-7-6-13(14)19-12-5-3-4-11(8-12)15(21)22/h3-10H,1-2H3,(H,17,19)(H,21,22)(H2,18,20,23)
Instrument: Exploris 240 Orbitrap Thermo Scientific
Instrument type: LC-ESI-QFT
Ms type: MS2
Ion mode: POSITIVE
Ionization: ESI
Fragmentation mode: HCD
Collision energy: 180 % (nominal)
Resolution: 17500
Column name: XBridge C18 3.5um, 2.1x50mm, Waters
Retention time: 4.459 min
Base peak: 379.1067
Precursor m/z: 379.1071
Precursor type: [M+H]+
m/z	relative intensity	assigned
51.0229	98	C4H3+
63.0229	591	C5H3+
65.0386	333	C5H5+
75.023	157	C6H3+
77.0386	72	C6H5+
78.034	32	C5H4N+
79.0419	24	C5H5N+
87.023	133	C7H3+
88.0307	222	C7H4+
89.0386	999	C7H5+
90.0339	57	C6H4N+
90.0465	147	C7H6+
101.0387	33	C8H5+
102.0464	29	C8H6+
105.0446	15	C6H5N2+
113.0385	558	C9H5+
114.0341	202	C8H4N+
114.0466	216	C9H6+
115.0423	79	C2H11O3S+
115.0541	757	C9H7+
116.0497	74	C8H6N+
117.0574	87	C8H7N+
128.0493	41	C9H6N+
129.0447	31	C8H5N2+
132.0573	28	C9H8O+
139.0417	53	C10H5N+
140.0494	701	C10H6N+
141.0572	110	C10H7N+
142.0532	29	C9H6N2+
166.0528	114	C11H6N2+
167.0607	82	C11H7N2+
168.0683	87	C11H8N2+
