Mass spectrum: 2-Ethylhexyl 4-(dimethylamino)benzoate; LC-ESI-QFT; MS2; CE: 180%; R=15000; [M+H]+
Name: 2-Ethylhexyl 4-(dimethylamino)benzoate
Formula: C17H27NO2
Exact mass: 277.2041791
SMILES: CCCCC(CC)COC(=O)C1=CC=C(C=C1)N(C)C
InChI: InChI=1S/C17H27NO2/c1-5-7-8-14(6-2)13-20-17(19)15-9-11-16(12-10-15)18(3)4/h9-12,14H,5-8,13H2,1-4H3
Instrument: Exploris 240 Thermo Scientific
Instrument type: LC-ESI-QFT
Ms type: MS2
Ion mode: POSITIVE
Ionization: ESI
Fragmentation mode: HCD
Collision energy: 180 % (nominal)
Resolution: 15000
Column name: XBridge C18 3.5um, 2.1x50mm, Waters
Retention time: 15.727 min
Base peak: 278.2111
Precursor m/z: 278.2115
Precursor type: [M+H]+
m/z	relative intensity	assigned
51.0229	116	C4H3+
53.0385	144	C4H5+
65.0385	999	C5H5+
77.0385	220	C6H5+
78.0464	168	C6H6+
79.0542	613	C6H7+
94.0414	35	C6H6O+
95.049	586	C6H7O+
104.0494	84	C7H6N+
105.0574	24	C7H7N+
106.0651	283	C7H8N+
134.0598	208	C8H8NO+
150.0548	260	C8H8NO2+
202.0776	341	C16H10+
