Mass spectrum: PF369TrOxTrDA; LC-ESI-QFT; MS2; CE: 45%; R=17500; [M-H]-
Name: PF369TrOxTrDA
Name: Perfluoro-3,6,9-trioxatridecanoic acid
Name: 2,2-difluoro-2-[1,1,2,2-tetrafluoro-2-[1,1,2,2-tetrafluoro-2-(1,1,2,2,3,3,4,4,4-nonafluorobutoxy)ethoxy]ethoxy]acetic acid
Formula: C10HF19O5
Exact mass: 561.952059312
SMILES: C(=O)(C(OC(C(OC(C(OC(C(C(C(F)(F)F)(F)F)(F)F)(F)F)(F)F)(F)F)(F)F)(F)F)(F)F)O
InChI: InChI=1S/C10HF19O5/c11-2(12,1(30)31)32-7(22,23)8(24,25)34-10(28,29)9(26,27)33-6(20,21)4(15,16)3(13,14)5(17,18)19/h(H,30,31)
Instrument: Exploris 240 Orbitrap Thermo Scientific
Instrument type: LC-ESI-QFT
Ms type: MS2
Ion mode: NEGATIVE
Ionization: ESI
Fragmentation mode: HCD
Collision energy: 45 % (nominal)
Resolution: 17500
Column name: XBridge C18 3.5um, 2.1x50mm, Waters
Retention time: 12.449 min
Base peak: 466.958
Precursor m/z: 560.9448
Precursor type: [M-H]-
m/z	relative intensity	assigned
134.9872	15	C2F5O-
168.9894	207	C3F7-
234.9811	999	C4F9O-
