Mass spectrum: para-Hydroxyatorvastatin; LC-ESI-QFT; MS2; CE: 90%; R=17500; [M+H]+
Name: para-Hydroxyatorvastatin
Name: 7-[2-(4-fluorophenyl)-4-[(4-hydroxyphenyl)carbamoyl]-3-phenyl-5-propan-2-ylpyrrol-1-yl]-3,5-dihydroxyheptanoic acid
Formula: C33H35FN2O6
Exact mass: 574.2479151
SMILES: CC(C)C1=C(C(=C(N1CCC(CC(CC(=O)O)O)O)C2=CC=C(C=C2)F)C3=CC=CC=C3)C(=O)NC4=CC=C(C=C4)O
InChI: InChI=1S/C33H35FN2O6/c1-20(2)31-30(33(42)35-24-12-14-25(37)15-13-24)29(21-6-4-3-5-7-21)32(22-8-10-23(34)11-9-22)36(31)17-16-26(38)18-27(39)19-28(40)41/h3-15,20,26-27,37-39H,16-19H2,1-2H3,(H,35,42)(H,40,41)
Instrument: Exploris 240 Orbitrap Thermo Scientific
Instrument type: LC-ESI-QFT
Ms type: MS2
Ion mode: POSITIVE
Ionization: ESI
Fragmentation mode: HCD
Collision energy: 90 % (nominal)
Resolution: 17500
Column name: XBridge C18 3.5um, 2.1x50mm, Waters
Retention time: 8.169 min
Base peak: 575.2547
Precursor m/z: 575.2552
Precursor type: [M+H]+
m/z	relative intensity	assigned
67.0541	14	C5H7+
69.0335	42	C4H5O+
71.0128	32	C3H3O2+
71.0492	41	C4H7O+
77.0387	74	C6H5+
79.0544	107	C6H7+
80.0495	34	C5H6N+
81.0334	227	C5H5O+
83.0492	101	C5H7O+
91.0544	60	C7H7+
95.0493	25	C6H7O+
103.0545	49	C8H7+
104.0494	142	C7H6N+
105.0447	28	C6H5N2+
108.0443	859	C6H6NO+
109.0447	102	C7H6F+
115.0542	203	C9H7+
116.0498	19	C8H6N+
117.0571	100	C8H7N+
121.0451	34	C8H6F+
122.04	154	C7H5FN+
127.0544	155	C10H7+
128.0494	48	C9H6N+
128.0623	103	C10H8+
129.0697	89	C10H9+
130.0655	46	C9H8N+
133.0447	195	C9H6F+
135.0479	47	C8H6FN+
141.0697	35	C11H9+
145.0454	41	C10H6F+
145.0649	52	C10H9O+
147.0606	27	C10H8F+
152.0495	21	C11H6N+
153.0704	51	C12H9+
154.0648	215	C11H8N+
155.0597	123	C10H7N2+
165.0704	37	C13H9+
172.0558	191	C11H7FN+
172.0742	16	C5H13FO5+
173.0511	60	C10H6FN2+
180.0809	61	C13H10N+
183.0606	59	C13H8F+
185.0633	26	C12H8FN+
189.0696	39	C15H9+
196.0684	61	C14H9F+
198.072	40	C13H9FN+
202.0777	258	C16H10+
203.0859	175	C16H11+
207.061	34	C15H8F+
209.0763	211	C15H10F+
217.0888	53	C16H11N+
218.0978	30	C13H13FNO+
220.0684	135	C16H9F+
221.0771	117	C16H10F+
230.0965	158	C17H12N+
233.0763	472	C17H10F+
235.0789	705	C16H10FN+
236.0869	113	C16H11FN+
237.0944	86	C16H12FN+
238.1023	62	C16H13FN+
248.0871	999	C17H11FN+
249.095	371	C17H12FN+
250.1026	868	C17H13FN+
260.0858	89	C18H11FN+
261.0951	265	C18H12FN+
262.1024	260	C18H13FN+
263.1096	37	C18H14FN+
264.0822	38	C17H11FNO+
264.1187	76	C18H15FN+
274.1025	174	C19H13FN+
275.1114	61	C19H14FN+
276.0819	60	C18H11FNO+
276.1178	441	C19H15FN+
286.1027	45	C20H13FN+
287.1105	36	C20H14FN+
290.135	24	C20H17FN+
300.1197	35	C21H15FN+
302.1349	41	C21H17FN+
