Mass spectrum: Cloquintocet-mexyl; LC-ESI-QFT; MS2; CE: 150%; R=15000; [M+H]+
Name: Cloquintocet-mexyl
Name: heptan-2-yl 2-(5-chloroquinolin-8-yl)oxyacetate
Formula: C18H22ClNO3
Exact mass: 335.1288212
SMILES: CCCCCC(C)OC(=O)COC1=CC=C(Cl)C2=CC=CN=C12
InChI: InChI=1S/C18H22ClNO3/c1-3-4-5-7-13(2)23-17(21)12-22-16-10-9-15(19)14-8-6-11-20-18(14)16/h6,8-11,13H,3-5,7,12H2,1-2H3
Instrument: Q Exactive Plus
Instrument type: LC-ESI-QFT
Ms type: MS2
Ion mode: POSITIVE
Ionization: ESI
Fragmentation mode: HCD
Collision energy: 150 % (nominal)
Resolution: 15000
Column name: XBridge C18 3.5um, 2.1x50mm, Waters
Retention time: 13.722 min
Base peak: 336.1363
Precursor m/z: 336.1361
Precursor type: [M+H]+
Precursor intensity: 314351778.17
m/z	relative intensity	assigned
50.0152	19	C4H2+
51.0229	34	C4H3+
63.0229	116	C5H3+
65.0387	17	C5H5+
74.0151	50	C6H2+
75.023	129	C6H3+
76.0181	19	C5H2N+
76.0307	19	C6H4+
77.0022	33	C5HO+
88.0308	18	C7H4+
89.0386	999	C7H5+
90.0341	15	C6H4N+
90.0466	28	C7H6+
99.023	149	C8H3+
100.0182	139	C7H2N+
100.0307	42	C8H4+
102.0464	23	C8H6+
115.0417	61	C8H5N+
116.0495	341	C8H6N+
118.0287	16	C7H4NO+
122.9998	22	C7H4Cl+
124.0074	29	C7H5Cl+
126.0339	66	C9H4N+
127.0417	277	C9H5N+
128.0496	29	C9H6N+
134.0601	528	C8H8NO+
144.0446	30	C9H6NO+
150.0111	25	C8H5ClN+
151.0184	239	C8H6ClN+
162.0106	11	C9H5ClN+
