Mass spectrum: Nintedanib; LC-ESI-QFT; MS2; CE: 75%; R=15000; [M-H]-
Name: Nintedanib
Name: methyl 2-hydroxy-3-[N-[4-[methyl-[2-(4-methylpiperazin-1-yl)acetyl]amino]phenyl]-C-phenylcarbonimidoyl]-1H-indole-6-carboxylate
Name: methyl 3-[N-[4-[methyl-[2-(4-methylpiperazin-1-yl)ethanoyl]amino]phenyl]-C-phenyl-carbonimidoyl]-2-oxidanyl-1H-indole-6-carboxylate
Formula: C31H33N5O4
Exact mass: 539.2532545
SMILES: CN1CCN(CC1)CC(=O)N(C)C2=CC=C(C=C2)N=C(C3=CC=CC=C3)C4=C(NC5=C4C=CC(=C5)C(=O)OC)O
InChI: InChI=1S/C31H33N5O4/c1-34-15-17-36(18-16-34)20-27(37)35(2)24-12-10-23(11-13-24)32-29(21-7-5-4-6-8-21)28-25-14-9-22(31(39)40-3)19-26(25)33-30(28)38/h4-14,19,33,38H,15-18,20H2,1-3H3
Instrument: Q Exactive
Instrument type: LC-ESI-QFT
Ms type: MS2
Ion mode: NEGATIVE
Ionization: ESI
Fragmentation mode: HCD
Collision energy: 75 % (nominal)
Resolution: 15000
Column name: XBridge C18 3.5um, 2.1x50mm, Waters
Retention time: 7.388 min
Base peak: 538.2455
Precursor m/z: 538.246
Precursor type: [M-H]-
Precursor intensity: 143017272.33
m/z	relative intensity	assigned
105.0457	257	C6H5N2-
115.0301	118	C7H3N2-
117.0457	96	C7H5N2-
119.0613	808	C7H7N2-
121.0168	16	C6H3NO2-
131.0375	46	C8H5NO-
132.045	36	C8H6NO-
133.0406	999	C7H5N2O-
134.0485	43	C7H6N2O-
167.0738	47	C12H9N-
190.0511	14	C10H8NO3-
190.0663	69	C14H8N-
191.0739	134	C14H9N-
192.0818	161	C14H10N-
194.0605	29	C11H6N4-
210.0565	16	C13H8NO2-
214.0381	29	C11H6N2O3-
215.0458	25	C11H7N2O3-
223.0638	73	C14H9NO2-
250.0873	135	C16H12NO2-
310.1103	84	C19H12N5-
336.1141	304	C22H14N3O-
337.1227	25	C22H15N3O-
338.1297	299	C22H16N3O-
351.1007	74	C22H13N3O2-
396.1347	308	C24H18N3O3-
