Mass spectrum: Tolclofos-methyl; LC-ESI-QFT; MS2; CE: 75%; R=15000; [M+H]+
Name: Tolclofos-methyl
Name: (2,6-dichloro-4-methylphenoxy)-dimethoxy-sulfanylidene-lambda5-phosphane
Formula: C9H11Cl2O3PS
Exact mass: 299.9543572
SMILES: COP(=S)(OC)OC1=C(Cl)C=C(C)C=C1Cl
InChI: InChI=1S/C9H11Cl2O3PS/c1-6-4-7(10)9(8(11)5-6)14-15(16,12-2)13-3/h4-5H,1-3H3
Instrument: Q Exactive Plus
Instrument type: LC-ESI-QFT
Ms type: MS2
Ion mode: POSITIVE
Ionization: ESI
Fragmentation mode: HCD
Collision energy: 75 % (nominal)
Resolution: 15000
Column name: XBridge C18 3.5um, 2.1x50mm, Waters
Retention time: 12.151 min
Base peak: 300.9617
Precursor m/z: 300.9616
Precursor type: [M+H]+
Precursor intensity: 57974677.45
m/z	relative intensity	assigned
51.023	76	C4H3+
59.9664	34	COS+
62.0184	112	C2H6S+
62.9453	60	PS+
65.0388	10	C5H5+
75.023	78	C6H3+
78.9943	999	CH4O2P+
86.9996	163	C4H4Cl+
93.0336	59	C6H5O+
94.0413	28	C6H6O+
95.0491	25	C6H7O+
96.9605	120	CH3ClOP+
108.0571	14	C7H8O+
109.0107	59	C6H5S+
111.044	72	C6H7O2+
112.0074	505	C6H5Cl+
121.0106	13	C7H5S+
125.0154	15	C7H6Cl+
127.0154	94	C3H8ClO3+
129.0102	661	C6H6ClO+
137.0055	26	C7H5OS+
141.01	33	C6H6O2P+
142.9927	647	C2H8O3PS+
143.9796	164	C6H5ClS+
146.9763	792	C6H5Cl2+
154.972	20	C7H4ClS+
155.9794	49	C6H5OPS+
174.9712	832	C7H5Cl2O+
218.9431	119	C7H5ClO2PS+
236.954	14	C8H7Cl2O2S+
253.9123	32	C7H5Cl2O2PS+
