Mass spectrum: Enzalutamide; LC-ESI-QFT; MS2; CE: 45%; R=15000; [M+H]+
Name: Enzalutamide
Name: 4-[3-[4-cyano-3-(trifluoromethyl)phenyl]-5,5-dimethyl-4-oxo-2-sulfanylideneimidazolidin-1-yl]-2-fluoro-N-methylbenzamide
Name: 4-[3-[4-cyano-3-(trifluoromethyl)phenyl]-5,5-dimethyl-4-oxidanylidene-2-sulfanylidene-imidazolidin-1-yl]-2-fluoranyl-N-methyl-benzamide
Formula: C21H16F4N4O2S
Exact mass: 464.0930096
SMILES: CC1(C(=O)N(C(=S)N1C2=CC(=C(C=C2)C(=O)NC)F)C3=CC(=C(C=C3)C#N)C(F)(F)F)C
InChI: InChI=1S/C21H16F4N4O2S/c1-20(2)18(31)28(12-5-4-11(10-26)15(8-12)21(23,24)25)19(32)29(20)13-6-7-14(16(22)9-13)17(30)27-3/h4-9H,1-3H3,(H,27,30)
Instrument: Q Exactive
Instrument type: LC-ESI-QFT
Ms type: MS2
Ion mode: POSITIVE
Ionization: ESI
Fragmentation mode: HCD
Collision energy: 45 % (nominal)
Resolution: 15000
Column name: XBridge C18 3.5um, 2.1x50mm, Waters
Retention time: 8.365 min
Base peak: 465.1004
Precursor m/z: 465.1003
Precursor type: [M+H]+
Precursor intensity: 640774504.06
m/z	relative intensity	assigned
58.0288	70	C2H4NO+
152.087	314	C9H11FN+
156.0277	353	C7H7FNS+
178.0662	625	C10H9FNO+
209.1084	999	C11H14FN2O+
227.0791	10	C11H10F3N2+
229.0042	223	C9H4F3N2S+
252.0744	93	C12H9F3N3+
349.0053	38	C16H5F4N2OS+
380.0477	313	C17H10F4N3OS+
