Mass spectrum: O-Desarylranolazine; LC-ESI-QFT; MS2; CE: 45%; R=17500; [M+H]+
Name: O-Desarylranolazine
Name: 2-[4-(2,3-dihydroxypropyl)piperazin-1-yl]-N-(2,6-dimethylphenyl)acetamide
Formula: C17H27N3O3
Exact mass: 321.2052417
SMILES: CC1=C(C(=CC=C1)C)NC(=O)CN2CCN(CC2)CC(CO)O
InChI: InChI=1S/C17H27N3O3/c1-13-4-3-5-14(2)17(13)18-16(23)11-20-8-6-19(7-9-20)10-15(22)12-21/h3-5,15,21-22H,6-12H2,1-2H3,(H,18,23)
Instrument: Exploris 240 Orbitrap Thermo Scientific
Instrument type: LC-ESI-QFT
Ms type: MS2
Ion mode: POSITIVE
Ionization: ESI
Fragmentation mode: HCD
Collision energy: 45 % (nominal)
Resolution: 17500
Column name: XBridge C18 3.5um, 2.1x50mm, Waters
Retention time: 3.177 min
Base peak: 322.212
Precursor m/z: 322.2125
Precursor type: [M+H]+
m/z	relative intensity	assigned
56.0495	7	C3H6N+
58.0652	8	C3H8N+
70.0651	76	C4H8N+
81.0332	4	C5H5O+
97.0759	11	C5H9N2+
98.0838	180	C5H10N2+
99.0916	6	C5H11N2+
100.0758	30	C5H10NO+
101.1072	13	C5H13N2+
113.1072	45	C6H13N2+
118.0865	18	C5H12NO2+
130.0864	20	C6H12NO2+
143.1178	999	C7H15N2O+
155.1182	12	C8H15N2O+
158.1047	20	C7H14N2O2+
173.1284	402	C8H17N2O2+
322.2124	184	C17H28N3O3+
