Mass spectrum: Fluazifop-butyl; LC-ESI-QFT; MS2; CE: 15%; R=15000; [M+H]+
Name: Fluazifop-butyl
Name: butyl 2-[4-[5-(trifluoromethyl)pyridin-2-yl]oxyphenoxy]propanoate
Formula: C19H20F3NO4
Exact mass: 383.1344428
SMILES: CCCCOC(=O)C(C)OC1=CC=C(OC2=CC=C(C=N2)C(F)(F)F)C=C1
InChI: InChI=1S/C19H20F3NO4/c1-3-4-11-25-18(24)13(2)26-15-6-8-16(9-7-15)27-17-10-5-14(12-23-17)19(20,21)22/h5-10,12-13H,3-4,11H2,1-2H3
Instrument: Q Exactive Plus
Instrument type: LC-ESI-QFT
Ms type: MS2
Ion mode: POSITIVE
Ionization: ESI
Fragmentation mode: HCD
Collision energy: 15 % (nominal)
Resolution: 15000
Column name: XBridge C18 3.5um, 2.1x50mm, Waters
Retention time: 13.597 min
Base peak: 384.142
Precursor m/z: 384.1417
Precursor type: [M+H]+
Precursor intensity: 286626437.05
m/z	relative intensity	assigned
282.0736	196	C14H11F3NO2+
328.0791	261	C15H13F3NO4+
384.1418	999	C19H21F3NO4+
