Mass spectrum: Tepraloxydim; LC-ESI-QFT; MS2; CE: 90%; R=15000; [M-H]-
Name: Tepraloxydim
Name: 2-Cyclohexen-1-one, 2-(1-((((2E)-3-chloro-2-propenyl)oxy)imino)propyl)-3-hydroxy-5-(tetrahydro-2H-pyran-4-yl)-
Name: 2-[N-[(E)-3-chloroprop-2-enoxy]-C-ethylcarbonimidoyl]-3-hydroxy-5-(oxan-4-yl)cyclohex-2-en-1-one
Formula: C17H24ClNO4
Exact mass: 341.1393859
SMILES: CCC(=C1C(=O)CC(CC1=O)C2CCOCC2)NOCC=CCl
InChI: InChI=1S/C17H24ClNO4/c1-2-14(19-23-7-3-6-18)17-15(20)10-13(11-16(17)21)12-4-8-22-9-5-12/h3,6,12-13,19H,2,4-5,7-11H2,1H3
Instrument: Q Exactive Plus
Instrument type: LC-ESI-QFT
Ms type: MS2
Ion mode: NEGATIVE
Ionization: ESI
Fragmentation mode: HCD
Collision energy: 90 % (nominal)
Resolution: 15000
Column name: XBridge C18 3.5um, 2.1x50mm, Waters
Retention time: 10.003 min
Base peak: 340.1321
Precursor m/z: 340.1321
Precursor type: [M-H]-
Precursor intensity: 110160583.24
m/z	relative intensity	assigned
57.0344	15	C3H5O-
65.9985	910	C3NO-
66.0349	68	C4H4N-
67.0188	33	C4H3O-
82.0296	43	C4H4NO-
92.0505	89	C6H6N-
94.0299	15	C5H4NO-
109.0295	191	C6H5O2-
120.0092	311	C6H2NO2-
120.0455	21	C7H6NO-
120.0818	28	C8H10N-
134.0248	999	C7H4NO2-
135.0328	64	C7H5NO2-
178.0875	100	C10H12NO2-
220.0979	648	C12H14NO3-
