Mass spectrum: Losartan-carboxylic acid; LC-ESI-QFT; MS2; CE: 60%; R=17500; [M+H]+
Name: Losartan-carboxylic acid
Name: Losartan carboxylic acid
Name: 2-butyl-5-chloro-3-[[4-[2-(2H-tetrazol-5-yl)phenyl]phenyl]methyl]imidazole-4-carboxylic acid
Formula: C22H21ClN6O2
Exact mass: 436.1414516
SMILES: CCCCC1=NC(=C(N1CC2=CC=C(C=C2)C3=CC=CC=C3C4=NNN=N4)C(=O)O)Cl
InChI: InChI=1S/C22H21ClN6O2/c1-2-3-8-18-24-20(23)19(22(30)31)29(18)13-14-9-11-15(12-10-14)16-6-4-5-7-17(16)21-25-27-28-26-21/h4-7,9-12H,2-3,8,13H2,1H3,(H,30,31)(H,25,26,27,28)
Instrument: Exploris 240 Orbitrap Thermo Scientific
Instrument type: LC-ESI-QFT
Ms type: MS2
Ion mode: POSITIVE
Ionization: ESI
Fragmentation mode: HCD
Collision energy: 60 % (nominal)
Resolution: 17500
Column name: XBridge C18 3.5um, 2.1x50mm, Waters
Retention time: 8.222 min
Base peak: 437.1482
Precursor m/z: 437.1487
Precursor type: [M+H]+
m/z	relative intensity	assigned
67.0415	15	C4H5N+
77.0386	18	C6H5+
80.0494	31	C5H6N+
105.0445	23	C6H5N2+
115.0543	32	C9H7+
129.0447	14	C8H5N2+
140.0494	84	C10H6N+
141.0701	12	C11H9+
152.0619	50	C12H8+
153.0697	444	C12H9+
163.0543	82	C13H7+
165.0704	33	C13H9+
166.0652	20	C12H8N+
167.0725	49	C12H9N+
168.0681	12	C11H8N2+
178.0784	430	C14H10+
180.0807	999	C13H10N+
185.0474	62	C8H10ClN2O+
190.065	907	C14H8N+
191.0728	201	C14H9N+
192.068	343	C13H8N2+
196.076	20	C10H13ClN2+
203.0579	68	C8H12ClN2O2+
205.0759	212	C14H9N2+
206.0837	571	C14H10N2+
207.0916	522	C14H11N2+
