Mass spectrum: Tolbutamide; LC-ESI-QFT; MS2; CE: 30%; R=17500; [M-H]-
Name: Tolbutamide
Name: 1-butyl-3-(4-methylphenyl)sulfonylurea
Formula: C12H18N2O3S
Exact mass: 270.103813436
SMILES: CCCCNC(=O)NS(=O)(=O)C1=CC=C(C=C1)C
InChI: InChI=1S/C12H18N2O3S/c1-3-4-9-13-12(15)14-18(16,17)11-7-5-10(2)6-8-11/h5-8H,3-4,9H2,1-2H3,(H2,13,14,15)
Instrument: Exploris 240 Orbitrap Thermo Scientific
Instrument type: LC-ESI-QFT
Ms type: MS2
Ion mode: NEGATIVE
Ionization: ESI
Fragmentation mode: HCD
Collision energy: 30 % (nominal)
Resolution: 17500
Column name: XBridge C18 3.5um, 2.1x50mm, Waters
Retention time: 6.948 min
Base peak: 269.0964
Precursor m/z: 269.0965
Precursor type: [M-H]-
m/z	relative intensity	assigned
106.0663	4	C7H8N-
170.0281	999	C7H8NO2S-
269.0965	113	C12H17N2O3S-
