Mass spectrum: Isotretinoine; LC-ESI-QFT; MS2; CE: 70%; R=15000; [M+H]+
Name: Isotretinoine
Name: (2Z,4E,6E,8E)-3,7-dimethyl-9-(2,6,6-trimethylcyclohexen-1-yl)nona-2,4,6,8-tetraenoic acid
Name: 3,7-dimethyl-9-(2,6,6-trimethylcyclohexen-1-yl)nona-2,4,6,8-tetraenoic acid
Formula: C20H28O2
Exact mass: 300.2089301
SMILES: CC1=C(C(CCC1)(C)C)C=CC(=CC=CC(=CC(=O)O)C)C
InChI: InChI=1S/C20H28O2/c1-15(8-6-9-16(2)14-19(21)22)11-12-18-17(3)10-7-13-20(18,4)5/h6,8-9,11-12,14H,7,10,13H2,1-5H3,(H,21,22)
Instrument: Exploris 240 Thermo Scientific
Instrument type: LC-ESI-QFT
Ms type: MS2
Ion mode: POSITIVE
Ionization: ESI
Fragmentation mode: HCD
Collision energy: 70 % (nominal)
Resolution: 15000
Column name: XBridge C18 3.5um, 2.1x50mm, Waters
Retention time: 16.283 min
Base peak: 301.2158
Precursor m/z: 301.2162
Precursor type: [M+H]+
m/z	relative intensity	assigned
53.0385	268	C4H5+
55.0543	241	C4H7+
65.0386	347	C5H5+
67.0542	150	C5H7+
77.0387	164	C6H5+
78.0466	72	C6H6+
79.0542	481	C6H7+
81.07	71	C6H9+
91.0542	999	C7H7+
95.0491	348	C6H7O+
103.0541	146	C8H7+
105.0698	275	C8H9+
115.0542	648	C9H7+
116.0623	109	C9H8+
117.0695	136	C9H9+
128.0621	512	C10H8+
129.0697	288	C10H9+
131.0857	26	C10H11+
141.0699	240	C11H9+
145.065	73	C10H9O+
153.0698	63	C12H9+
202.0777	798	C16H10+
