Mass spectrum: Hesperitin; LC-ESI-QFT; MS2; CE: 60%; R=17500; [M-H]-
Name: Hesperitin
Name: 5,7-dihydroxy-2-(3-hydroxy-4-methoxyphenyl)-3,4-dihydro-2H-1-benzopyran-4-one
Name: 5,7-dihydroxy-2-(3-hydroxy-4-methoxyphenyl)-2,3-dihydrochromen-4-one
Formula: C16H14O6
Exact mass: 302.0790382
SMILES: COC1=C(C=C(C=C1)C2CC(=O)C3=C(C=C(C=C3O2)O)O)O
InChI: InChI=1S/C16H14O6/c1-21-13-3-2-8(4-10(13)18)14-7-12(20)16-11(19)5-9(17)6-15(16)22-14/h2-6,14,17-19H,7H2,1H3
Instrument: Exploris 240 Orbitrap Thermo Scientific
Instrument type: LC-ESI-QFT
Ms type: MS2
Ion mode: NEGATIVE
Ionization: ESI
Fragmentation mode: HCD
Collision energy: 60 % (nominal)
Resolution: 17500
Column name: XBridge C18 3.5um, 2.1x50mm, Waters
Retention time: 6.311 min
Base peak: 301.0717
Precursor m/z: 301.0718
Precursor type: [M-H]-
m/z	relative intensity	assigned
57.0344	10	C3H5O-
63.0241	27	C5H3-
65.0033	133	C4HO-
80.0271	50	C5H4O-
83.0139	107	C4H3O2-
107.0139	246	C6H3O2-
108.0217	361	C6H4O2-
120.022	20	C7H4O2-
123.0089	11	C6H3O3-
124.0166	35	C6H4O3-
125.0241	50	C6H5O3-
134.0373	413	C8H6O2-
135.0455	94	C8H7O2-
136.0166	677	C7H4O3-
149.0606	25	C9H9O2-
151.0037	671	C7H3O4-
152.0119	34	C7H4O4-
158.0375	64	C10H6O2-
160.0173	12	C9H4O3-
164.0116	999	C8H4O4-
172.0529	27	C11H8O2-
174.0322	109	C10H6O3-
175.0403	18	C10H7O3-
177.02	48	C9H5O4-
186.0688	11	C12H10O2-
187.0403	23	C11H7O3-
188.0487	22	C11H8O3-
198.0326	17	C12H6O3-
199.0402	114	C12H7O3-
200.0477	73	C12H8O3-
201.0195	101	C11H5O4-
202.0269	32	C11H6O4-
213.0564	37	C13H9O3-
214.0633	67	C13H10O3-
215.0351	42	C12H7O4-
216.0434	23	C12H8O4-
217.0508	13	C12H9O4-
224.0471	16	C14H8O3-
225.056	14	C14H9O3-
227.0356	23	C13H7O4-
240.0426	25	C14H8O4-
241.0506	69	C14H9O4-
242.058	88	C14H10O4-
243.0301	17	C13H7O5-
268.0381	19	C15H8O5-
285.0402	122	C15H9O6-
286.0488	18	C15H10O6-
