Mass spectrum: Tropicamide; LC-ESI-QFT; MS2; CE: 80%; R=15000; [M+H]+
Name: Tropicamide
Name: N-ethyl-3-hydroxy-2-phenyl-N-(pyridin-4-ylmethyl)propanamide
Formula: C17H20N2O2
Exact mass: 284.1524779
SMILES: CCN(CC1=CC=NC=C1)C(=O)C(CO)C2=CC=CC=C2
InChI: InChI=1S/C17H20N2O2/c1-2-19(12-14-8-10-18-11-9-14)17(21)16(13-20)15-6-4-3-5-7-15/h3-11,16,20H,2,12-13H2,1H3
Instrument: Exploris 240 Thermo Scientific
Instrument type: LC-ESI-QFT
Ms type: MS2
Ion mode: POSITIVE
Ionization: ESI
Fragmentation mode: HCD
Collision energy: 80 % (nominal)
Resolution: 15000
Column name: XBridge C18 3.5um, 2.1x50mm, Waters
Retention time: 3.277 min
Base peak: 285.1592
Precursor m/z: 285.1598
Precursor type: [M+H]+
m/z	relative intensity	assigned
50.0151	36	C4H2+
51.0229	245	C4H3+
53.0385	279	C4H5+
65.0385	306	C5H5+
66.0464	155	C5H6+
67.0416	228	C4H5N+
77.0385	185	C6H5+
78.034	25	C5H4N+
79.0416	132	C5H5N+
80.0494	999	C5H6N+
91.0541	130	C7H7+
92.0494	329	C6H6N+
93.0572	447	C6H7N+
95.0491	276	C6H7O+
103.0541	60	C8H7+
105.0445	192	C6H5N2+
107.0603	89	C6H7N2+
111.0318	16	C5H5NO2+
119.0603	60	C7H7N2+
202.0775	314	C16H10+
