Mass spectrum: Trimebutine; LC-ESI-QFT; MS2; CE: 150%; R=17500; [M+H]+
Name: Trimebutine
Name: [2-(dimethylamino)-2-phenylbutyl] 3,4,5-trimethoxybenzoate
Formula: C22H29NO5
Exact mass: 387.204573028
SMILES: CCC(COC(=O)C1=CC(=C(C(=C1)OC)OC)OC)(C2=CC=CC=C2)N(C)C
InChI: InChI=1S/C22H29NO5/c1-7-22(23(2)3,17-11-9-8-10-12-17)15-28-21(24)16-13-18(25-4)20(27-6)19(14-16)26-5/h8-14H,7,15H2,1-6H3
Instrument: Exploris 240 Orbitrap Thermo Scientific
Instrument type: LC-ESI-QFT
Ms type: MS2
Ion mode: POSITIVE
Ionization: ESI
Fragmentation mode: HCD
Collision energy: 150 % (nominal)
Resolution: 17500
Column name: XBridge C18 3.5um, 2.1x50mm, Waters
Retention time: 6.755 min
Base peak: 388.2118
Precursor m/z: 388.2118
Precursor type: [M+H]+
m/z	relative intensity	assigned
50.0152	77	C4H2+
51.0229	416	C4H3+
52.0309	30	C4H4+
53.0023	71	C3HO+
53.0386	925	C4H5+
55.0178	120	C3H3O+
63.0229	122	C5H3+
64.0309	84	C5H4+
65.0386	806	C5H5+
66.01	151	C4H2O+
66.0463	178	C5H6+
67.0545	58	C5H7+
68.0255	101	C4H4O+
68.9973	49	C3HO2+
76.0309	45	C6H4+
77.0386	407	C6H5+
78.0467	63	C6H6+
79.0179	104	C5H3O+
79.0542	37	C6H7+
81.0335	267	C5H5O+
89.0388	38	C7H5+
91.0543	999	C7H7+
92.0257	114	C6H4O+
94.0051	118	C5H2O2+
95.0492	187	C6H7O+
96.0205	25	C5H4O2+
107.0129	178	C6H3O2+
108.0209	41	C6H4O2+
109.0284	198	C6H5O2+
115.0543	322	C9H7+
116.0622	47	C9H8+
121.0286	176	C7H5O2+
128.0625	81	C10H8+
151.0388	53	C8H7O3+
