Mass spectrum: Isavuconazole; LC-ESI-QFT; MS2; CE: 40%; R=15000; [M+H]+
Name: Isavuconazole
Name: 4-[2-[(2R,3R)-3-[2,5-bis(fluoranyl)phenyl]-3-oxidanyl-4-(1,2,4-triazol-1-yl)butan-2-yl]-1,3-thiazol-4-yl]benzenecarbonitrile
Name: 4-[2-[3-(2,5-difluorophenyl)-3-hydroxy-4-(1,2,4-triazol-1-yl)butan-2-yl]-1,3-thiazol-4-yl]benzonitrile
Formula: C22H17F2N5OS
Exact mass: 437.1121876
SMILES: CC(C1=NC(=CS1)C2=CC=C(C=C2)C#N)C(CN3C=NC=N3)(C4=C(C=CC(=C4)F)F)O
InChI: InChI=1S/C22H17F2N5OS/c1-14(21-28-20(10-31-21)16-4-2-15(9-25)3-5-16)22(30,11-29-13-26-12-27-29)18-8-17(23)6-7-19(18)24/h2-8,10,12-14,30H,11H2,1H3
Instrument: Exploris 240 Thermo Scientific
Instrument type: LC-ESI-QFT
Ms type: MS2
Ion mode: POSITIVE
Ionization: ESI
Fragmentation mode: HCD
Collision energy: 40 % (nominal)
Resolution: 15000
Column name: XBridge C18 3.5um, 2.1x50mm, Waters
Retention time: 10.216 min
Base peak: 438.1191
Precursor m/z: 438.1195
Precursor type: [M+H]+
m/z	relative intensity	assigned
70.04	81	C2H4N3+
82.04	35	C3H4N3+
83.0478	25	C3H5N3+
116.0494	53	C8H6N+
127.0353	999	C7H5F2+
154.0463	55	C8H6F2N+
155.0301	54	C8H5F2O+
160.0215	91	C9H6NS+
161.0167	13	C3H4FN5S+
169.057	12	C8H7F2N2+
172.0218	16	C10H6NS+
197.0521	24	C9H7F2N2O+
202.0777	108	C16H10+
203.0829	30	C6H13N5OS+
213.048	226	C12H9N2S+
214.0558	25	C7H9FN5S+
224.063	100	C10H8F2N3O+
336.0532	10	C19H10F2N2S+
