Mass spectrum: Hexa(methoxymethyl)melamine; LC-ESI-QFT; MS2; CE: 75%; R=17500; [M+H]+
Name: Hexa(methoxymethyl)melamine
Name: 2-N,2-N,4-N,4-N,6-N,6-N-hexakis(methoxymethyl)-1,3,5-triazine-2,4,6-triamine
Formula: C15H30N6O6
Exact mass: 390.2226827
SMILES: COCN(COC)C1=NC(=NC(=N1)N(COC)COC)N(COC)COC
InChI: InChI=1S/C15H30N6O6/c1-22-7-19(8-23-2)13-16-14(20(9-24-3)10-25-4)18-15(17-13)21(11-26-5)12-27-6/h7-12H2,1-6H3
Instrument: Exploris 240 Orbitrap Thermo Scientific
Instrument type: LC-ESI-QFT
Ms type: MS2
Ion mode: POSITIVE
Ionization: ESI
Fragmentation mode: HCD
Collision energy: 75 % (nominal)
Resolution: 17500
Column name: XBridge C18 3.5um, 2.1x50mm, Waters
Retention time: 6.393 min
Base peak: 359.2034
Precursor m/z: 391.23
Precursor type: [M+H]+
m/z	relative intensity	assigned
55.029	28	C2H3N2+
56.0495	16	C3H6N+
57.0445	12	C2H5N2+
69.0447	376	C3H5N2+
80.0244	9	C3H2N3+
82.04	17	C3H4N3+
94.0402	20	C4H4N3+
96.0555	130	C4H6N3+
107.0354	8	C4H3N4+
123.066	26	C5H7N4+
136.0617	18	C5H6N5+
148.0617	39	C6H6N5+
150.0776	26	C6H8N5+
177.0883	999	C7H9N6+
