Mass spectrum: Imidacloprid; LC-ESI-QFT; MS2; CE: 75%; R=15000; [M+H]+
Name: Imidacloprid
Name: N-[1-[(6-chloro-3-pyridinyl)methyl]-4,5-dihydroimidazol-2-yl]nitramide
Name: N-[1-[(6-chloropyridin-3-yl)methyl]-4,5-dihydroimidazol-2-yl]nitramide
Formula: C9H10ClN5O2
Exact mass: 255.0523022
SMILES: [O-][N+](=O)\N=C1/NCCN1CC1=CN=C(Cl)C=C1
InChI: InChI=1S/C9H10ClN5O2/c10-8-2-1-7(5-12-8)6-14-4-3-11-9(14)13-15(16)17/h1-2,5H,3-4,6H2,(H,11,13)
Instrument: Q Exactive Plus
Instrument type: LC-ESI-QFT
Ms type: MS2
Ion mode: POSITIVE
Ionization: ESI
Fragmentation mode: HCD
Collision energy: 75 % (nominal)
Resolution: 15000
Column name: XBridge C18 3.5um, 2.1x50mm, Waters
Retention time: 4.086 min
Base peak: 256.0597
Precursor m/z: 256.0596
Precursor type: [M+H]+
Precursor intensity: 237713302.75
m/z	relative intensity	assigned
56.0495	74	C3H6N+
57.0448	25	C2H5N2+
65.0385	20	C5H5+
69.0448	15	C3H5N2+
71.0603	20	C3H7N2+
80.0495	26	C5H6N+
84.0557	318	C3H6N3+
90.0338	31	C6H4N+
92.0494	36	C6H6N+
93.0574	26	C6H7N+
96.0444	14	C5H6NO+
98.0713	16	C4H8N3+
98.9997	28	C5H4Cl+
99.0554	38	C4H7N2O+
105.0448	56	C6H5N2+
106.0652	63	C7H8N+
107.0604	57	C6H7N2+
108.0682	16	C6H8N2+
110.0603	14	C6H8NO+
113.0027	20	C5H4ClN+
114.0109	15	C5H5ClN+
118.0527	15	C7H6N2+
119.048	22	C6H5N3+
119.0605	65	C7H7N2+
120.0557	39	C6H6N3+
122.0713	10	C6H8N3+
126.0106	130	C6H5ClN+
127.0183	31	C6H6ClN+
128.0262	127	C6H7ClN+
131.0605	49	C8H7N2+
132.0558	31	C7H6N3+
132.0682	17	C8H8N2+
133.0635	117	C7H7N3+
133.076	72	C8H9N2+
134.0713	74	C7H8N3+
135.079	12	C7H9N3+
139.0058	12	C6H4ClN2+
140.0263	14	C7H7ClN+
141.0216	84	C6H6ClN2+
144.0212	14	C6H7ClNO+
146.059	35	C7H6N4+
146.0713	158	C8H8N3+
147.0666	215	C7H7N4+
148.0868	80	C8H10N3+
157.0636	19	C9H7N3+
158.0713	107	C9H8N3+
159.0667	17	C8H7N4+
159.079	120	C9H9N3+
166.0166	30	C7H5ClN3+
167.0369	47	C8H8ClN2+
173.0823	228	C9H9N4+
174.09	170	C9H10N4+
175.0979	770	C9H11N4+
180.0192	10	C7H5ClN4+
180.0327	19	C8H7ClN3+
181.0275	60	C7H6ClN4+
191.0931	57	C9H11N4O+
194.0484	22	C9H9ClN3+
207.0431	13	C9H8ClN4+
208.0512	56	C9H9ClN4+
209.059	999	C9H10ClN4+
