Mass spectrum: Flumioxazin; LC-ESI-QFT; MS2; CE: 150%; R=15000; [M+H]+
Name: Flumioxazin
Name: 2-(7-fluoro-3-oxo-4-prop-2-ynyl-1,4-benzoxazin-6-yl)-4,5,6,7-tetrahydroisoindole-1,3-dione
Formula: C19H15FN2O4
Exact mass: 354.1015852
SMILES: FC1=CC2=C(C=C1N1C(=O)C3=C(CCCC3)C1=O)N(CC#C)C(=O)CO2
InChI: InChI=1S/C19H15FN2O4/c1-2-7-21-15-9-14(13(20)8-16(15)26-10-17(21)23)22-18(24)11-5-3-4-6-12(11)19(22)25/h1,8-9H,3-7,10H2
Instrument: Q Exactive Plus
Instrument type: LC-ESI-QFT
Ms type: MS2
Ion mode: POSITIVE
Ionization: ESI
Fragmentation mode: HCD
Collision energy: 150 % (nominal)
Resolution: 15000
Column name: XBridge C18 3.5um, 2.1x50mm, Waters
Retention time: 8.237 min
Base peak: 355.1091
Precursor m/z: 355.1089
Precursor type: [M+H]+
Precursor intensity: 108809856.34
m/z	relative intensity	assigned
50.0151	319	C4H2+
51.023	675	C4H3+
52.0181	39	C3H2N+
52.0307	34	C4H4+
53.0386	349	C4H5+
57.0135	264	C3H2F+
62.015	41	C5H2+
63.0229	171	C5H3+
65.0021	27	C4HO+
65.0386	117	C5H5+
66.0339	10	C4H4N+
66.0463	21	C5H6+
67.0542	24	C5H7+
69.0134	46	C4H2F+
70.0213	81	C4H3F+
71.0291	21	C4H4F+
74.0151	162	C6H2+
75.0229	904	C6H3+
76.0182	422	C5H2N+
77.0022	24	C5HO+
77.0385	308	C6H5+
78.0339	62	C5H4N+
78.0464	19	C6H6+
79.0178	25	C5H3O+
79.0542	505	C6H7+
81.0136	244	C5H2F+
82.0086	34	C4HFN+
82.0213	30	C5H3F+
83.0291	193	C5H4F+
87.0228	41	C7H3+
88.0183	54	C6H2N+
89.0386	168	C7H5+
91.0543	78	C7H7+
93.0135	15	C6H2F+
94.021	30	C6H3F+
95.0492	999	C6H7O+
96.0243	183	C5H3FN+
96.0369	35	C6H5F+
97.0082	31	C5H2FO+
98.015	26	C8H2+
98.0402	19	C5H5FN+
100.0182	106	C7H2N+
101.0386	66	C8H5+
102.0338	58	C7H4N+
104.0496	25	C7H6N+
105.0448	265	C6H5N2+
107.0292	433	C7H4F+
108.0245	93	C6H3FN+
109.0325	20	C6H4FN+
113.0389	90	C9H5+
114.0345	152	C5H5FNO+
115.0415	18	C8H5N+
116.0492	39	C8H6N+
119.0492	94	C8H7O+
120.0367	59	C8H5F+
120.0445	20	C7H6NO+
121.0446	31	C8H6F+
122.0402	59	C7H5FN+
123.0351	82	C6H4FN2+
124.0194	190	C6H3FNO+
125.0386	39	C10H5+
126.0347	105	C6H5FNO+
127.0416	36	C9H5N+
127.0541	17	C10H7+
128.0494	70	C9H6N+
128.0619	18	C10H8+
129.0447	151	C8H5N2+
132.0245	40	C8H3FN+
133.0326	18	C8H4FN+
133.0447	74	C9H6F+
134.0398	45	C8H5FN+
135.0479	33	C8H6FN+
138.0345	26	C7H5FNO+
139.0541	76	C11H7+
140.0499	71	C10H6N+
141.0575	22	C10H7N+
146.0397	26	C9H5FN+
148.0557	54	C9H7FN+
150.0465	29	C12H6+
151.0301	24	C7H4FN2O+
152.0145	56	C7H3FNO2+
152.062	30	C12H8+
154.0649	50	C11H8N+
155.0601	25	C10H7N2+
163.0546	32	C13H7+
164.0496	57	C12H6N+
173.0509	11	C10H6FN2+
179.0251	25	C8H4FN2O2+
179.0598	23	C12H7N2+
184.0557	20	C12H7FN+
185.0634	19	C12H8FN+
