Mass spectrum: N-Desmethylrosuvastatin; LC-ESI-QFT; MS2; CE: 45%; R=17500; [M-H]-
Name: N-Desmethylrosuvastatin
Name: 7-[4-(4-fluorophenyl)-2-(methanesulfonamido)-6-propan-2-ylpyrimidin-5-yl]-3,5-dihydroxyhept-6-enoic acid
Formula: C21H26FN3O6S
Exact mass: 467.1526348
SMILES: CC(C)C1=NC(=NC(=C1C=CC(CC(CC(=O)O)O)O)C2=CC=C(C=C2)F)NS(=O)(=O)C
InChI: InChI=1S/C21H26FN3O6S/c1-12(2)19-17(9-8-15(26)10-16(27)11-18(28)29)20(13-4-6-14(22)7-5-13)24-21(23-19)25-32(3,30)31/h4-9,12,15-16,26-27H,10-11H2,1-3H3,(H,28,29)(H,23,24,25)
Instrument: Exploris 240 Orbitrap Thermo Scientific
Instrument type: LC-ESI-QFT
Ms type: MS2
Ion mode: NEGATIVE
Ionization: ESI
Fragmentation mode: HCD
Collision energy: 45 % (nominal)
Resolution: 17500
Column name: XBridge C18 3.5um, 2.1x50mm, Waters
Retention time: 5.365 min
Base peak: 466.145
Precursor m/z: 466.1454
Precursor type: [M-H]-
m/z	relative intensity	assigned
57.0344	17	C3H5O-
59.0138	63	C2H3O2-
63.9625	87	O2S-
76.9702	102	CHO2S-
78.9859	303	CH3O2S-
83.0501	84	FH6N3O-
85.0296	83	C4H5O2-
87.0087	165	C3H3O3-
93.9967	20	CH4NO2S-
118.9921	474	C2H3N2O2S-
136.0185	11	C2H6N3O2S-
204.1141	28	C11H14N3O-
212.0627	9	C9H12N2O2S-
230.1095	239	C10H18N2O2S-
238.0781	24	C11H14N2O2S-
240.0583	38	C18H8O-
254.1088	49	C12H18N2O2S-
256.0891	44	C14H11FN3O-
256.1258	80	C20H16-
264.0939	15	C13H16N2O2S-
268.0896	19	C20H12O-
280.1243	12	C14H20N2O2S-
282.1036	79	C13H18N2O3S-
292.057	14	C21H7FN-
308.087	119	C14H15FN3O2S-
320.0875	436	C15H15FN3O2S-
326.1676	33	C19H21FN3O-
334.1055	89	C15H16N3O6-
360.1189	381	C18H19FN3O2S-
362.0979	999	C17H17FN3O3S-
378.1288	96	C18H21FN3O3S-
386.1351	133	C20H21FN3O2S-
404.1444	247	C20H23FN3O3S-
