Mass spectrum: O-Desarylranolazine; LC-ESI-QFT; MS2; CE: 150%; R=17500; [M+H]+
Name: O-Desarylranolazine
Name: 2-[4-(2,3-dihydroxypropyl)piperazin-1-yl]-N-(2,6-dimethylphenyl)acetamide
Formula: C17H27N3O3
Exact mass: 321.2052417
SMILES: CC1=C(C(=CC=C1)C)NC(=O)CN2CCN(CC2)CC(CO)O
InChI: InChI=1S/C17H27N3O3/c1-13-4-3-5-14(2)17(13)18-16(23)11-20-8-6-19(7-9-20)10-15(22)12-21/h3-5,15,21-22H,6-12H2,1-2H3,(H,18,23)
Instrument: Exploris 240 Orbitrap Thermo Scientific
Instrument type: LC-ESI-QFT
Ms type: MS2
Ion mode: POSITIVE
Ionization: ESI
Fragmentation mode: HCD
Collision energy: 150 % (nominal)
Resolution: 17500
Column name: XBridge C18 3.5um, 2.1x50mm, Waters
Retention time: 3.177 min
Base peak: 322.212
Precursor m/z: 322.2125
Precursor type: [M+H]+
m/z	relative intensity	assigned
54.0337	39	C3H4N+
55.0416	49	C3H5N+
56.0494	994	C3H6N+
57.0336	90	C3H5O+
57.0575	127	C3H7N+
58.0651	693	C3H8N+
67.0417	62	C4H5N+
68.0495	294	C4H6N+
69.0446	202	C3H5N2+
70.0651	960	C4H8N+
72.0808	49	C4H10N+
77.0387	38	C6H5+
80.0494	42	C5H6N+
82.0651	133	C5H8N+
83.0603	999	C4H7N2+
97.076	571	C5H9N2+
98.0838	590	C5H10N2+
