Mass spectrum: Chlorprothixene; LC-ESI-QFT; MS2; CE: 30%; R=17500; [M+H]+
Name: Chlorprothixene
Name: 3-(2-chlorothioxanthen-9-ylidene)-N,N-dimethylpropan-1-amine
Formula: C18H18ClNS
Exact mass: 315.084848256
SMILES: CN(C)CCC=C1C2=CC=CC=C2SC3=C1C=C(C=C3)Cl
InChI: InChI=1S/C18H18ClNS/c1-20(2)11-5-7-14-15-6-3-4-8-17(15)21-18-10-9-13(19)12-16(14)18/h3-4,6-10,12H,5,11H2,1-2H3
Instrument: Exploris 240 Orbitrap Thermo Scientific
Instrument type: LC-ESI-QFT
Ms type: MS2
Ion mode: POSITIVE
Ionization: ESI
Fragmentation mode: HCD
Collision energy: 30 % (nominal)
Resolution: 17500
Column name: XBridge C18 3.5um, 2.1x50mm, Waters
Retention time: 10.058 min
Base peak: 316.0919
Precursor m/z: 316.0921
Precursor type: [M+H]+
m/z	relative intensity	assigned
58.0651	26	C3H8N+
70.0651	6	C4H8N+
72.0808	4	C4H10N+
84.0809	30	C5H10N+
85.0888	8	C5H11N+
231.0029	65	C13H8ClS+
235.0579	9	C16H11S+
236.0657	15	C16H12S+
238.0544	4	C16H11Cl+
245.0185	19	C14H10ClS+
271.0343	287	C16H12ClS+
273.0499	80	C16H14ClS+
316.0921	999	C18H19ClNS+
