Mass spectrum: Cyclopentolate; LC-ESI-QFT; MS2; CE: 25%; R=15000; [M+H]+
Name: Cyclopentolate
Name: 2-(dimethylamino)ethyl 2-(1-oxidanylcyclopentyl)-2-phenyl-ethanoate
Formula: C17H25NO3
Exact mass: 291.1834437
SMILES: CN(C)CCOC(=O)C(C1=CC=CC=C1)C2(CCCC2)O
InChI: InChI=1S/C17H25NO3/c1-18(2)12-13-21-16(19)15(14-8-4-3-5-9-14)17(20)10-6-7-11-17/h3-5,8-9,15,20H,6-7,10-13H2,1-2H3
Instrument: Exploris 240 Thermo Scientific
Instrument type: LC-ESI-QFT
Ms type: MS2
Ion mode: POSITIVE
Ionization: ESI
Fragmentation mode: HCD
Collision energy: 25 % (nominal)
Resolution: 15000
Column name: XBridge C18 3.5um, 2.1x50mm, Waters
Retention time: 4.922 min
Base peak: 292.1903
Precursor m/z: 292.1907
Precursor type: [M+H]+
m/z	relative intensity	assigned
72.0807	999	C4H10N+
85.0648	26	C5H9O+
90.0913	136	C4H12NO+
91.0541	91	C7H7+
129.0699	99	C10H9+
157.1011	261	C12H13+
163.0752	57	C10H11O2+
185.0962	11	C13H13O+
202.0777	147	C16H10+
229.1222	86	C15H17O2+
274.18	40	C17H24NO2+
