Mass spectrum: tau-Fluvalinate; LC-ESI-QFT; MS2; CE: 90%; R=15000; [M+H]+
Name: tau-Fluvalinate
Name: Fluvalinate
Name: [cyano-(3-phenoxyphenyl)methyl] 2-[2-chloro-4-(trifluoromethyl)anilino]-3-methylbutanoate
Formula: C26H22ClF3N2O3
Exact mass: 502.1271049
SMILES: CC(C)C(C(=O)OC(C#N)C1=CC(=CC=C1)OC2=CC=CC=C2)NC3=C(C=C(C=C3)C(F)(F)F)Cl
InChI: InChI=1S/C26H22ClF3N2O3/c1-16(2)24(32-22-12-11-18(14-21(22)27)26(28,29)30)25(33)35-23(15-31)17-7-6-10-20(13-17)34-19-8-4-3-5-9-19/h3-14,16,23-24,32H,1-2H3
Instrument: Q Exactive Plus
Instrument type: LC-ESI-QFT
Ms type: MS2
Ion mode: POSITIVE
Ionization: ESI
Fragmentation mode: HCD
Collision energy: 90 % (nominal)
Resolution: 15000
Column name: XBridge C18 3.5um, 2.1x50mm, Waters
Retention time: 16.348 min
Base peak: 503.1345
Precursor m/z: 503.1344
Precursor type: [M+H]+
Precursor intensity: 56663198.69
m/z	relative intensity	assigned
50.0151	11	C4H2+
51.0229	17	C4H3+
53.0385	30	C4H5+
77.0384	23	C6H5+
95.0491	99	C6H7O+
103.0541	14	C8H7+
105.0448	29	C6H5N2+
115.0542	28	C9H7+
126.0465	14	C10H6+
127.0541	52	C10H7+
128.0619	19	C10H8+
139.0541	58	C11H7+
140.0495	36	C10H6N+
140.0619	16	C11H8+
145.0648	64	C10H9O+
150.0462	11	C12H6+
151.054	11	C12H7+
152.0619	999	C12H8+
153.0576	13	C11H7N+
153.0696	142	C12H9+
154.065	16	C11H8N+
155.0488	45	C11H7O+
155.0604	62	C10H7N2+
163.0539	17	C13H7+
164.0493	18	C12H6N+
168.0568	58	C12H8O+
169.0647	124	C12H9O+
177.057	10	C13H7N+
178.065	38	C13H8N+
178.9869	17	C7H3ClF3+
179.06	31	C12H7N2+
180.0805	35	C13H10N+
181.0646	658	C13H9O+
190.0654	13	C14H8N+
193.0522	23	C13H7NO+
205.9985	10	C8H4ClF3N+
206.0599	138	C14H8NO+
207.0679	28	C14H9NO+
