Mass spectrum: Hexythiazox; LC-ESI-QFT; MS2; CE: 150%; R=15000; [M+H]+
Name: Hexythiazox
Name: 5-(4-chlorophenyl)-N-cyclohexyl-4-methyl-2-oxo-1,3-thiazolidine-3-carboxamide
Formula: C17H21ClN2O2S
Exact mass: 352.1012266
SMILES: CC1C(SC(=O)N1C(=O)NC2CCCCC2)C3=CC=C(C=C3)Cl
InChI: InChI=1S/C17H21ClN2O2S/c1-11-15(12-7-9-13(18)10-8-12)23-17(22)20(11)16(21)19-14-5-3-2-4-6-14/h7-11,14-15H,2-6H2,1H3,(H,19,21)
Instrument: Exploris 240 Thermo Scientific
Instrument type: LC-ESI-QFT
Ms type: MS2
Ion mode: POSITIVE
Ionization: ESI
Fragmentation mode: HCD
Collision energy: 150 % (nominal)
Resolution: 15000
Column name: XBridge C18 3.5um, 2.1x50mm, Waters
Retention time: 14.150 min
Base peak: 353.1083
Precursor m/z: 353.1085
Precursor type: [M+H]+
m/z	relative intensity	assigned
55.0543	44	C4H7+
56.0494	24	C3H6N+
63.0229	31	C5H3+
65.0386	64	C5H5+
89.0385	175	C7H5+
90.0465	51	C7H6+
91.0542	126	C7H7+
98.9995	26	C5H4Cl+
103.0543	14	C8H7+
115.0542	999	C9H7+
116.062	189	C9H8+
117.0573	100	C8H7N+
118.0649	32	C8H8N+
125.0152	54	C7H6Cl+
138.0106	33	C7H5ClN+
149.0153	12	C9H6Cl+
