Mass spectrum: Flumioxazin; LC-ESI-QFT; MS2; CE: 120%; R=15000; [M+H]+
Name: Flumioxazin
Name: 2-(7-fluoro-3-oxo-4-prop-2-ynyl-1,4-benzoxazin-6-yl)-4,5,6,7-tetrahydroisoindole-1,3-dione
Formula: C19H15FN2O4
Exact mass: 354.1015852
SMILES: FC1=CC2=C(C=C1N1C(=O)C3=C(CCCC3)C1=O)N(CC#C)C(=O)CO2
InChI: InChI=1S/C19H15FN2O4/c1-2-7-21-15-9-14(13(20)8-16(15)26-10-17(21)23)22-18(24)11-5-3-4-6-12(11)19(22)25/h1,8-9H,3-7,10H2
Instrument: Q Exactive Plus
Instrument type: LC-ESI-QFT
Ms type: MS2
Ion mode: POSITIVE
Ionization: ESI
Fragmentation mode: HCD
Collision energy: 120 % (nominal)
Resolution: 15000
Column name: XBridge C18 3.5um, 2.1x50mm, Waters
Retention time: 8.237 min
Base peak: 355.1091
Precursor m/z: 355.1089
Precursor type: [M+H]+
Precursor intensity: 108809856.34
m/z	relative intensity	assigned
50.0151	170	C4H2+
51.023	359	C4H3+
52.0308	10	C4H4+
53.0022	37	C3HO+
53.0386	414	C4H5+
55.0179	29	C3H3O+
57.0136	110	C3H2F+
63.0229	80	C5H3+
65.0386	109	C5H5+
67.0543	37	C5H7+
68.0496	20	C4H6N+
70.0213	22	C4H3F+
74.015	45	C6H2+
75.0229	517	C6H3+
76.0181	128	C5H2N+
77.0385	252	C6H5+
78.034	44	C5H4N+
78.0464	17	C6H6+
79.0542	778	C6H7+
80.062	39	C6H8+
81.0136	76	C5H2F+
81.0335	31	C5H5O+
83.0292	157	C5H4F+
87.0227	11	C7H3+
88.0183	18	C6H2N+
89.0386	80	C7H5+
91.0542	134	C7H7+
95.0492	999	C6H7O+
96.0244	103	C5H3FN+
100.018	62	C7H2N+
101.0386	104	C8H5+
102.0338	46	C7H4N+
102.0466	23	C8H6+
104.0495	37	C7H6N+
105.0448	280	C6H5N2+
106.0289	26	C6H4NO+
107.0291	356	C7H4F+
107.0492	28	C7H7O+
108.0243	77	C6H3FN+
109.0448	35	C7H6F+
110.0402	38	C6H5FN+
113.0392	90	C6H6FO+
114.0345	94	C5H5FNO+
115.0417	16	C8H5N+
115.0543	82	C9H7+
117.057	31	C8H7N+
119.0493	158	C8H7O+
120.037	72	C8H5F+
121.0449	106	C8H6F+
122.0401	120	C7H5FN+
123.0353	56	C6H4FN2+
124.0193	252	C6H3FNO+
126.0349	90	C6H5FNO+
127.0418	30	C9H5N+
127.0543	15	C10H7+
128.0496	137	C9H6N+
129.0447	274	C8H5N2+
130.0652	19	C9H8N+
132.0248	26	C8H3FN+
133.0448	71	C9H6F+
134.04	85	C8H5FN+
135.0479	101	C8H6FN+
136.0197	17	C7H3FNO+
137.0273	25	C7H4FNO+
138.0348	45	C7H5FNO+
139.0544	41	C11H7+
140.0497	72	C10H6N+
141.045	15	C9H5N2+
143.0606	20	C9H7N2+
145.0649	17	C10H9O+
147.0483	39	C9H6FN+
148.0558	189	C9H7FN+
150.035	54	C8H5FNO+
150.0462	16	C12H6+
151.0301	43	C7H4FN2O+
151.0419	19	C11H5N+
152.0144	123	C7H3FNO2+
152.0503	38	C8H7FNO+
152.0618	26	C12H8+
153.0454	21	C7H6FN2O+
153.0569	28	C11H7N+
154.0654	58	C11H8N+
155.0604	59	C10H7N2+
158.0396	45	C10H5FN+
162.0351	21	C9H5FNO+
163.0302	74	C8H4FN2O+
163.0423	17	C9H6FNO+
164.05	60	C12H6N+
165.0458	19	C8H6FN2O+
165.07	16	C13H9+
166.0656	48	C9H9FNO+
172.0557	51	C11H7FN+
173.0514	29	C10H6FN2+
176.0507	32	C10H7FNO+
177.0454	27	C9H6FN2O+
177.0584	21	C10H8FNO+
179.0249	108	C8H4FN2O2+
179.0597	30	C12H7N2+
180.0811	21	C13H10N+
184.056	35	C12H7FN+
185.0639	34	C12H8FN+
188.0502	24	C11H7FNO+
189.0459	20	C10H6FN2O+
190.0658	20	C11H9FNO+
192.068	28	C13H8N2+
193.0766	27	C13H9N2+
203.0603	17	C14H7N2+
