Mass spectrum: (E)-1-(2-Chloro-1,3-thiazol-5-yl methyl)-3-methyl-2-nitroguanidine; LC-ESI-QFT; MS2; CE: 75%; R=15000; [M-H]-
Name: (E)-1-(2-Chloro-1,3-thiazol-5-yl methyl)-3-methyl-2-nitroguanidine
Name: 1-[(2-chloro-1,3-thiazol-5-yl)methyl]-2-methyl-3-nitroguanidine
Formula: C6H8ClN5O2S
Exact mass: 249.0087232
SMILES: CN\C(NCC1=CN=C(Cl)S1)=N/[N+]([O-])=O
InChI: InChI=1S/C6H8ClN5O2S/c1-8-6(11-12(13)14)10-3-4-2-9-5(7)15-4/h2H,3H2,1H3,(H2,8,10,11)
Instrument: Q Exactive Plus
Instrument type: LC-ESI-QFT
Ms type: MS2
Ion mode: NEGATIVE
Ionization: ESI
Fragmentation mode: HCD
Collision energy: 75 % (nominal)
Resolution: 15000
Column name: XBridge C18 3.5um, 2.1x50mm, Waters
Retention time: 4.147 min
Base peak: 248.0014
Precursor m/z: 248.0014
Precursor type: [M-H]-
Precursor intensity: 134504502.14
m/z	relative intensity	assigned
55.0301	61	C2H3N2-
56.9804	15	C2HS-
57.9756	999	CNS-
61.0043	50	HN2O2-
92.0257	12	C4H2N3-
111.0024	34	C4H3N2S-
117.9524	20	C3HClNS-
148.9926	18	C5HN4S-
150.0005	71	C5H2N4S-
165.0242	15	C6H5N4S-
