Mass spectrum: 2-Hydroxynevirapine; LC-ESI-QFT; MS2; CE: 75%; R=17500; [M+H]+
Name: 2-Hydroxynevirapine
Name: 2-Hydroxy Nevirapine
Name: 2-cyclopropyl-7-methyl-2,4,9,15-tetrazatricyclo[9.4.0.03,8]pentadeca-1(11),3(8),6,12,14-pentaene-5,10-dione
Formula: C15H14N4O2
Exact mass: 282.1116757
SMILES: CC1=CC(=O)NC2=C1NC(=O)C3=C(N2C4CC4)N=CC=C3
InChI: InChI=1S/C15H14N4O2/c1-8-7-11(20)17-14-12(8)18-15(21)10-3-2-6-16-13(10)19(14)9-4-5-9/h2-3,6-7,9H,4-5H2,1H3,(H,17,20)(H,18,21)
Instrument: Exploris 240 Orbitrap Thermo Scientific
Instrument type: LC-ESI-QFT
Ms type: MS2
Ion mode: POSITIVE
Ionization: ESI
Fragmentation mode: HCD
Collision energy: 75 % (nominal)
Resolution: 17500
Column name: XBridge C18 3.5um, 2.1x50mm, Waters
Retention time: 3.847 min
Base peak: 283.1187
Precursor m/z: 283.119
Precursor type: [M+H]+
m/z	relative intensity	assigned
68.0495	411	C4H6N+
78.0337	110	C5H4N+
79.0418	72	C5H5N+
80.0497	35	C5H6N+
91.0542	47	C7H7+
93.0446	54	C5H5N2+
94.0528	13	C5H6N2+
95.0604	419	C5H7N2+
96.0446	70	C5H6NO+
96.0686	67	C5H8N2+
105.0448	45	C6H5N2+
106.0287	35	C6H4NO+
106.0653	23	C7H8N+
108.081	42	C7H10N+
116.0497	13	C8H6N+
117.0574	16	C8H7N+
118.0657	37	C8H8N+
119.0606	32	C7H7N2+
120.0558	90	C6H6N3+
121.0396	136	C6H5N2O+
123.0551	66	C6H7N2O+
124.0631	183	C6H8N2O+
131.0603	99	C8H7N2+
132.0686	34	C8H8N2+
133.0761	250	C8H9N2+
148.0508	33	C7H6N3O+
159.0556	48	C9H7N2O+
160.0632	75	C9H8N2O+
161.071	999	C9H9N2O+
170.0711	29	C10H8N3+
171.0667	43	C9H7N4+
185.0822	128	C10H9N4+
186.0906	91	C10H10N4+
198.0662	290	C11H8N3O+
213.0772	220	C11H9N4O+
214.0849	863	C11H10N4O+
215.0928	30	C11H11N4O+
223.0736	21	C13H9N3O+
224.0824	28	C13H10N3O+
225.0772	33	C12H9N4O+
227.0937	30	C14H13NO2+
228.0769	35	C12H10N3O2+
238.0973	21	C14H12N3O+
239.0924	23	C13H11N4O+
240.1016	25	C13H12N4O+
242.0802	112	C12H10N4O2+
267.0869	71	C14H11N4O2+
283.1197	29	C15H15N4O2+
