Mass spectrum: BifenoxH; LC-ESI-QFT; MS2; CE: 75%; R=15000; [M+H]+
Name: BifenoxH
Name: Bifenox
Name: methyl 5-(2,4-dichlorophenoxy)-2-nitrobenzoate
Formula: C14H9Cl2NO5
Exact mass: 340.9857777
SMILES: COC(=O)C1=C(C=CC(=C1)OC2=C(C=C(C=C2)Cl)Cl)[N+](=O)[O-]
InChI: InChI=1S/C14H9Cl2NO5/c1-21-14(18)10-7-9(3-4-12(10)17(19)20)22-13-5-2-8(15)6-11(13)16/h2-7H,1H3
Instrument: Q Exactive Plus
Instrument type: LC-ESI-QFT
Ms type: MS2
Ion mode: POSITIVE
Ionization: ESI
Fragmentation mode: HCD
Collision energy: 75 % (nominal)
Resolution: 15000
Column name: XBridge C18 3.5um, 2.1x50mm, Waters
Retention time: 12.553 min
Base peak: 164.9845
Precursor m/z: 341.9931
Precursor type: [M+H]+
Precursor intensity: 10833477.93
m/z	relative intensity	assigned
50.0151	37	C4H2+
51.0229	33	C4H3+
53.0022	44	C3HO+
65.0386	66	C5H5+
67.0178	39	C4H3O+
67.0416	16	C4H5N+
68.9971	72	C3HO2+
72.9839	90	C3H2Cl+
74.015	92	C6H2+
75.0101	10	C5HN+
75.0229	23	C6H3+
76.0181	128	C5H2N+
77.0259	43	C5H3N+
78.0338	29	C5H4N+
82.9449	44	CHCl2+
84.9839	29	C4H2Cl+
86.9632	164	C3ClO+
96.9839	46	C5H2Cl+
98.9996	12	C5H4Cl+
104.0131	118	C6H2NO+
106.9447	40	C3HCl2+
108.9839	499	C6H2Cl+
113.0386	23	C9H5+
125.9869	25	C6H3ClO+
128.0022	17	C6H5ClO+
132.9605	999	C5H3Cl2+
140.0495	284	C10H6N+
144.9606	84	C6H3Cl2+
146.9994	59	C9H4Cl+
160.9556	19	C6H3Cl2O+
162.9713	36	C6H5Cl2O+
172.9668	178	C9ClNO+
173.0151	150	C11H6Cl+
174.0103	74	C10H5ClN+
175.0181	31	C10H6ClN+
176.0023	38	C10H5ClO+
182.9761	52	C9H5Cl2+
188.9502	125	C7H3Cl2O2+
203.013	54	C11H6ClNO+
