Mass spectrum: Sulfentrazone; LC-ESI-QFT; MS2; CE: 120%; R=15000; [M+H]+
Name: Sulfentrazone
Name: N-[2,4-dichloro-5-[4-(difluoromethyl)-3-methyl-5-oxo-1,2,4-triazol-1-yl]phenyl]methanesulfonamide
Formula: C11H10Cl2F2N4O3S
Exact mass: 385.981873
SMILES: CC1=NN(C(=O)N1C(F)F)C1=CC(NS(C)(=O)=O)=C(Cl)C=C1Cl
InChI: InChI=1S/C11H10Cl2F2N4O3S/c1-5-16-19(11(20)18(5)10(14)15)9-4-8(17-23(2,21)22)6(12)3-7(9)13/h3-4,10,17H,1-2H3
Instrument: Q Exactive Plus
Instrument type: LC-ESI-QFT
Ms type: MS2
Ion mode: POSITIVE
Ionization: ESI
Fragmentation mode: HCD
Collision energy: 120 % (nominal)
Resolution: 15000
Column name: XBridge C18 3.5um, 2.1x50mm, Waters
Retention time: 6.517 min
Base peak: 386.9893
Precursor m/z: 386.9891
Precursor type: [M+H]+
Precursor intensity: 79056822.8
m/z	relative intensity	assigned
50.0151	10	C4H2+
52.0181	16	C3H2N+
61.9792	225	CHClN+
64.0181	13	C4H2N+
72.9839	54	C3H2Cl+
74.0035	19	C2HFNO+
75.0103	310	C5HN+
76.0181	245	C5H2N+
82.9449	40	CHCl2+
83.9762	23	C4HCl+
84.9839	115	C4H2Cl+
85.9792	22	C3HClN+
92.0131	14	C5H2NO+
97.9791	83	C4HClN+
99.9949	28	C4H3ClN+
100.0054	34	C6N2+
101.0133	160	C6HN2+
103.029	62	C6H3N2+
106.9449	26	C3HCl2+
109.9792	999	C5HClN+
111.9948	264	C5H3ClN+
118.945	27	C4HCl2+
119.0239	15	C6H3N2O+
130.0054	45	C5H5ClNO+
136.9901	31	C6H2ClN2+
139.0057	143	C6H4ClN2+
145.956	39	C5H2Cl2N+
154.0165	120	C6H5ClN3+
