Mass spectrum: Eriodictyol; LC-ESI-QFT; MS2; CE: 75%; R=17500; [M-H]-
Name: Eriodictyol
Name: (+/-)-Eriodictyol
Name: 2-(3,4-dihydroxyphenyl)-5,7-dihydroxy-2,3-dihydrochromen-4-one
Formula: C15H12O6
Exact mass: 288.0633881
SMILES: C1C(OC2=CC(=CC(=C2C1=O)O)O)C3=CC(=C(C=C3)O)O
InChI: InChI=1S/C15H12O6/c16-8-4-11(19)15-12(20)6-13(21-14(15)5-8)7-1-2-9(17)10(18)3-7/h1-5,13,16-19H,6H2
Instrument: Exploris 240 Orbitrap Thermo Scientific
Instrument type: LC-ESI-QFT
Ms type: MS2
Ion mode: NEGATIVE
Ionization: ESI
Fragmentation mode: HCD
Collision energy: 75 % (nominal)
Resolution: 17500
Column name: XBridge C18 3.5um, 2.1x50mm, Waters
Retention time: 5.348 min
Base peak: 287.056
Precursor m/z: 287.0561
Precursor type: [M-H]-
m/z	relative intensity	assigned
63.024	61	C5H3-
65.0033	213	C4HO-
83.0139	75	C4H3O2-
91.0551	3	C7H7-
107.0139	95	C6H3O2-
107.0505	18	C7H7O-
109.0293	16	C6H5O2-
117.0344	6	C8H5O-
133.0291	8	C8H5O2-
134.0374	70	C8H6O2-
135.0452	999	C8H7O2-
151.0037	37	C7H3O4-
