Mass spectrum: Fluralaner; LC-ESI-QFT; MS2; CE: 90%; R=17500; [M+H]+
Name: Fluralaner
Name: 4-[5-(3,5-dichlorophenyl)-5-(trifluoromethyl)-4H-1,2-oxazol-3-yl]-2-methyl-N-[2-oxo-2-(2,2,2-trifluoroethylamino)ethyl]benzamide
Formula: C22H17Cl2F6N3O3
Exact mass: 555.055116084
SMILES: CC1=C(C=CC(=C1)C2=NOC(C2)(C3=CC(=CC(=C3)Cl)Cl)C(F)(F)F)C(=O)NCC(=O)NCC(F)(F)F
InChI: InChI=1S/C22H17Cl2F6N3O3/c1-11-4-12(2-3-16(11)19(35)31-9-18(34)32-10-21(25,26)27)17-8-20(36-33-17,22(28,29)30)13-5-14(23)7-15(24)6-13/h2-7H,8-10H2,1H3,(H,31,35)(H,32,34)
Instrument: Exploris 240 Orbitrap Thermo Scientific
Instrument type: LC-ESI-QFT
Ms type: MS2
Ion mode: POSITIVE
Ionization: ESI
Fragmentation mode: HCD
Collision energy: 90 % (nominal)
Resolution: 17500
Column name: XBridge C18 3.5um, 2.1x50mm, Waters
Retention time: 13.351 min
Base peak: 556.0624
Precursor m/z: 556.0624
Precursor type: [M+H]+
m/z	relative intensity	assigned
63.0228	8	C5H3+
65.0386	13	C5H5+
75.023	14	C6H3+
76.0307	15	C6H4+
77.0385	684	C6H5+
78.0338	155	C5H4N+
79.0541	12	CH6FN3+
89.0386	86	C7H5+
90.0464	68	C7H6+
91.0542	10	C7H7+
94.0412	27	C6H6O+
95.0491	309	C6H7O+
96.0444	98	C5H6NO+
102.0342	51	C7H4N+
102.0464	477	C8H6+
103.0413	13	C7H5N+
103.0543	212	C8H7+
104.0494	36	C7H6N+
105.0447	296	C6H5N2+
106.0285	27	C6H4NO+
115.0416	76	C8H5N+
115.0541	53	C4H6FN3+
116.0492	73	F5H7N+
130.0399	85	C7H4N3+
130.0649	54	CH9F5N+
132.0443	999	C8H6NO+
143.0492	13	C10H7O+
144.961	13	CClF2N2O2+
160.0387	385	CH7F5NO2+
172.9552	98	C2H2Cl2FN3O+
202.0785	33	C8H10F2N3O+
203.0859	73	C16H11+
216.0812	16	C16H10N+
250.0406	11	C8H10ClF5N+
319.0361	14	C8H15Cl2F4NO3+
