Mass spectrum: tau-Fluvalinate; LC-ESI-QFT; MS2; CE: 120%; R=15000; [M+H]+
Name: tau-Fluvalinate
Name: Fluvalinate
Name: [cyano-(3-phenoxyphenyl)methyl] 2-[2-chloro-4-(trifluoromethyl)anilino]-3-methylbutanoate
Formula: C26H22ClF3N2O3
Exact mass: 502.1271049
SMILES: CC(C)C(C(=O)OC(C#N)C1=CC(=CC=C1)OC2=CC=CC=C2)NC3=C(C=C(C=C3)C(F)(F)F)Cl
InChI: InChI=1S/C26H22ClF3N2O3/c1-16(2)24(32-22-12-11-18(14-21(22)27)26(28,29)30)25(33)35-23(15-31)17-7-6-10-20(13-17)34-19-8-4-3-5-9-19/h3-14,16,23-24,32H,1-2H3
Instrument: Q Exactive Plus
Instrument type: LC-ESI-QFT
Ms type: MS2
Ion mode: POSITIVE
Ionization: ESI
Fragmentation mode: HCD
Collision energy: 120 % (nominal)
Resolution: 15000
Column name: XBridge C18 3.5um, 2.1x50mm, Waters
Retention time: 16.348 min
Base peak: 503.1345
Precursor m/z: 503.1344
Precursor type: [M+H]+
Precursor intensity: 56663198.69
m/z	relative intensity	assigned
50.0151	50	C4H2+
51.0229	75	C4H3+
53.0022	12	C3HO+
53.0386	46	C4H5+
62.0151	19	C5H2+
63.0229	23	C5H3+
74.015	19	C6H2+
75.0228	43	C6H3+
77.0385	41	C6H5+
78.0465	12	C6H6+
88.0307	18	C7H4+
89.0385	23	C7H5+
91.0542	18	C7H7+
95.0491	144	C6H7O+
102.0463	25	C8H6+
105.0447	43	C6H5N2+
114.0338	17	C8H4N+
115.0541	57	C9H7+
126.0463	103	C10H6+
127.0541	115	C10H7+
128.062	25	C10H8+
129.0447	13	C8H5N2+
132.0569	10	C9H8O+
137.0386	10	C11H5+
139.0541	132	C11H7+
140.0496	52	C10H6N+
145.0647	93	C10H9O+
150.0463	79	C12H6+
151.054	26	C12H7+
152.0619	999	C12H8+
153.0697	19	C12H9+
155.0486	26	C11H7O+
163.054	11	C13H7+
164.0492	43	C12H6N+
169.0646	233	C12H9O+
177.0571	37	C13H7N+
178.0652	21	C13H8N+
179.061	44	C12H7N2+
181.0645	76	C13H9O+
206.0599	79	C14H8NO+
