Mass spectrum: Torasemidecarboxylic acid; LC-ESI-QFT; MS2; CE: 75%; R=17500; [M-H]-
Name: Torasemidecarboxylic acid
Name: Torsemide Carboxylic Acid
Name: 3-[[3-(propan-2-ylcarbamoylsulfamoyl)pyridin-4-yl]amino]benzoic acid
Formula: C16H18N4O5S
Exact mass: 378.0997907
SMILES: CC(C)NC(=O)NS(=O)(=O)C1=C(C=CN=C1)NC2=CC=CC(=C2)C(=O)O
InChI: InChI=1S/C16H18N4O5S/c1-10(2)18-16(23)20-26(24,25)14-9-17-7-6-13(14)19-12-5-3-4-11(8-12)15(21)22/h3-10H,1-2H3,(H,17,19)(H,21,22)(H2,18,20,23)
Instrument: Exploris 240 Orbitrap Thermo Scientific
Instrument type: LC-ESI-QFT
Ms type: MS2
Ion mode: NEGATIVE
Ionization: ESI
Fragmentation mode: HCD
Collision energy: 75 % (nominal)
Resolution: 17500
Column name: XBridge C18 3.5um, 2.1x50mm, Waters
Retention time: 4.449 min
Base peak: 377.0924
Precursor m/z: 377.0925
Precursor type: [M-H]-
m/z	relative intensity	assigned
57.9758	72	CNS-
60.9754	96	CHOS-
63.9625	21	O2S-
77.9655	414	NO2S-
91.0304	72	C5H3N2-
91.0428	114	C6H5N-
92.038	414	C5H4N2-
93.0458	118	C5H5N2-
107.0493	42	C5H5N3-
108.0329	421	C5H4N2O-
123.0021	16	C5H3N2S-
135.0024	29	C6H3N2S-
141.0461	18	C9H5N2-
150.9975	76	C6H3N2OS-
167.0615	481	C11H7N2-
168.0566	57	C10H6N3-
169.077	185	C11H9N2-
181.0646	999	C11H7N3-
182.072	336	C11H8N3-
183.0566	49	C11H7N2O-
184.088	140	C11H10N3-
185.0729	13	C5H15NO4S-
212.0293	65	C11H6N3S-
231.0241	35	C11H7N2O2S-
248.0499	47	C11H10N3O2S-
