Mass spectrum: HFPO-TeA; LC-ESI-QFT; MS2; CE: 30%; R=17500; [M-H]-
Name: HFPO-TeA
Name: Perfluoro-(2,5,8-trimethyl-3,6,9-trioxadodecanoic)acid
Name: 2,3,3,3-tetrafluoro-2-[1,1,2,3,3,3-hexafluoro-2-[1,1,2,3,3,3-hexafluoro-2-(1,1,2,2,3,3,3-heptafluoropropoxy)propoxy]propoxy]propanoic acid
Formula: C12HF23O5
Exact mass: 661.945672192
SMILES: C(=O)(C(C(F)(F)F)(OC(C(C(F)(F)F)(OC(C(C(F)(F)F)(OC(C(C(F)(F)F)(F)F)(F)F)F)(F)F)F)(F)F)F)O
InChI: InChI=1S/C12HF23O5/c13-2(1(36)37,6(18,19)20)38-11(32,33)4(16,8(24,25)26)40-12(34,35)5(17,9(27,28)29)39-10(30,31)3(14,15)7(21,22)23/h(H,36,37)
Instrument: Exploris 240 Orbitrap Thermo Scientific
Instrument type: LC-ESI-QFT
Ms type: MS2
Ion mode: NEGATIVE
Ionization: ESI
Fragmentation mode: HCD
Collision energy: 30 % (nominal)
Resolution: 17500
Column name: XBridge C18 3.5um, 2.1x50mm, Waters
Retention time: 13.161 min
Base peak: 350.9691
Precursor m/z: 660.9384
Precursor type: [M-H]-
m/z	relative intensity	assigned
118.9928	51	C2F5-
168.9891	288	C3F7-
184.9842	999	C3F7O-
