Mass spectrum: Isoxaflutole; LC-ESI-QFT; MS2; CE: 75%; R=15000; [M+H]+
Name: Isoxaflutole
Name: (5-cyclopropyl-1,2-oxazol-4-yl)-[2-methylsulfonyl-4-(trifluoromethyl)phenyl]methanone
Formula: C15H12F3NO4S
Exact mass: 359.0439135
SMILES: CS(=O)(=O)C1=C(C=CC(=C1)C(F)(F)F)C(=O)C1=C(ON=C1)C1CC1
InChI: InChI=1S/C15H12F3NO4S/c1-24(21,22)12-6-9(15(16,17)18)4-5-10(12)13(20)11-7-19-23-14(11)8-2-3-8/h4-8H,2-3H2,1H3
Instrument: Q Exactive Plus
Instrument type: LC-ESI-QFT
Ms type: MS2
Ion mode: POSITIVE
Ionization: ESI
Fragmentation mode: HCD
Collision energy: 75 % (nominal)
Resolution: 15000
Column name: XBridge C18 3.5um, 2.1x50mm, Waters
Retention time: 7.750 min
Base peak: 360.0514
Precursor m/z: 360.0512
Precursor type: [M+H]+
Precursor intensity: 182019318.31
m/z	relative intensity	assigned
59.9664	15	COS+
62.9899	78	CH3OS+
63.0231	13	C5H3+
68.9796	12	C3HS+
69.0336	52	C4H5O+
70.0214	22	C4H3F+
78.9848	12	CH3O2S+
79.0178	15	C5H3O+
83.0291	19	C5H4F+
90.9992	15	C3HF2O+
94.995	15	C5H3S+
97.0106	16	C5H5S+
101.0198	234	C5H3F2+
108.003	39	F3H3O3+
109.0449	381	C7H6F+
110.0165	49	C6H3FO+
112.032	93	C6H5FO+
113.0197	28	C6H3F2+
114.0279	20	C6H4F2+
115.0013	147	C5H4FS+
115.0352	16	C6H5F2+
119.0104	16	C5H2F3+
120.0182	182	C5H3F3+
121.0261	59	C5H4F3+
125.0198	11	C7H3F2+
127.0354	176	C7H5F2+
129.0147	152	C6H3F2O+
132.0182	495	C6H3F3+
133.0259	128	C6H4F3+
139.0353	25	C8H5F2+
141.0149	245	C7H3F2O+
141.0257	23	C3H8FNO2S+
143.0301	42	C7H5F2O+
144.0181	38	C7H3F3+
144.992	96	C8HO3+
145.0261	60	C7H4F3+
147.0074	24	C6H5F2S+
149.021	305	C6H4F3O+
156.9919	251	C7H3F2S+
159.0416	134	C8H6F3+
160.0131	452	C7H3F3O+
161.0209	358	C7H4F3O+
162.0287	145	C7H5F3O+
163.9902	270	C6H3F3S+
164.998	336	C6H4F3S+
166.0237	62	C6H5F3O2+
167.0312	34	C6H6F3O2+
172.0129	198	C8H3F3O+
173.0207	56	C8H4F3O+
175.0366	57	C8H6F3O+
176.9981	146	C7H4F3S+
177.0154	62	C7H4F3O2+
178.0234	46	C7H5F3O2+
179.0137	67	C7H6F3S+
189.0156	311	C8H4F3O2+
192.9929	161	C7H4F3OS+
195.0264	17	C7H6F3O3+
195.9796	47	C6H3F3O2S+
206.0187	103	C8H5F3O3+
219.9801	999	C8H3F3O2S+
220.988	158	C8H4F3O2S+
250.9983	387	C9H6F3O3S+
