Mass spectrum: Cloquintocet-mexyl; LC-ESI-QFT; MS2; CE: 90%; R=15000; [M+H]+
Name: Cloquintocet-mexyl
Name: heptan-2-yl 2-(5-chloroquinolin-8-yl)oxyacetate
Formula: C18H22ClNO3
Exact mass: 335.1288212
SMILES: CCCCCC(C)OC(=O)COC1=CC=C(Cl)C2=CC=CN=C12
InChI: InChI=1S/C18H22ClNO3/c1-3-4-5-7-13(2)23-17(21)12-22-16-10-9-15(19)14-8-6-11-20-18(14)16/h6,8-11,13H,3-5,7,12H2,1-2H3
Instrument: Q Exactive Plus
Instrument type: LC-ESI-QFT
Ms type: MS2
Ion mode: POSITIVE
Ionization: ESI
Fragmentation mode: HCD
Collision energy: 90 % (nominal)
Resolution: 15000
Column name: XBridge C18 3.5um, 2.1x50mm, Waters
Retention time: 13.722 min
Base peak: 336.1363
Precursor m/z: 336.1361
Precursor type: [M+H]+
Precursor intensity: 314351778.17
m/z	relative intensity	assigned
57.0699	77	C4H9+
89.0386	17	C7H5+
116.0496	23	C8H6N+
126.034	28	C9H4N+
127.0417	138	C9H5N+
128.0494	45	C9H6N+
129.057	18	C9H7N+
134.0602	80	C8H8NO+
144.0445	72	C9H6NO+
151.0184	999	C8H6ClN+
162.0105	309	C9H5ClN+
163.0183	43	C9H6ClN+
164.026	50	C9H7ClN+
178.0053	28	C9H5ClNO+
179.0133	732	C9H6ClNO+
180.0211	159	C9H7ClNO+
191.0136	10	C10H6ClNO+
192.0211	396	C10H7ClNO+
