Mass spectrum: Spirodiclofen; LC-ESI-QFT; MS2; CE: 45%; R=15000; [M+H]+
Name: Spirodiclofen
Name: [3-(2,4-dichlorophenyl)-2-oxo-1-oxaspiro[4.5]dec-3-en-4-yl] 2,2-dimethylbutanoate
Formula: C21H24Cl2O4
Exact mass: 410.1051646
SMILES: CCC(C)(C)C(=O)OC1=C(C(=O)OC12CCCCC2)C3=C(C=C(C=C3)Cl)Cl
InChI: InChI=1S/C21H24Cl2O4/c1-4-20(2,3)19(25)26-17-16(14-9-8-13(22)12-15(14)23)18(24)27-21(17)10-6-5-7-11-21/h8-9,12H,4-7,10-11H2,1-3H3
Instrument: Exploris 240 Thermo Scientific
Instrument type: LC-ESI-QFT
Ms type: MS2
Ion mode: POSITIVE
Ionization: ESI
Fragmentation mode: HCD
Collision energy: 45 % (nominal)
Resolution: 15000
Column name: XBridge C18 3.5um, 2.1x50mm, Waters
Retention time: 14.932 min
Base peak: 411.1125
Precursor m/z: 411.1124
Precursor type: [M+H]+
m/z	relative intensity	assigned
71.0855	999	C5H11+
212.9502	85	C9H3Cl2O2+
214.9656	18	C9H5Cl2O2+
230.9611	81	C9H5Cl2O3+
267.0336	37	C14H13Cl2O+
295.0286	159	C15H13Cl2O2+
313.0396	53	C15H15Cl2O3+
