Mass spectrum: Ketotifen; LC-ESI-QFT; MS2; CE: 40%; R=15000; [M+H]+
Name: Ketotifen
Name: 2-(1-methylpiperidin-4-ylidene)-6-thiatricyclo[8.4.0.03,7]tetradeca-1(14),3(7),4,10,12-pentaen-8-one
Formula: C19H19NOS
Exact mass: 309.1187352
SMILES: CN1CCC(=C2C3=C(C(=O)CC4=CC=CC=C42)SC=C3)CC1
InChI: InChI=1S/C19H19NOS/c1-20-9-6-13(7-10-20)18-15-5-3-2-4-14(15)12-17(21)19-16(18)8-11-22-19/h2-5,8,11H,6-7,9-10,12H2,1H3
Instrument: Exploris 240 Thermo Scientific
Instrument type: LC-ESI-QFT
Ms type: MS2
Ion mode: POSITIVE
Ionization: ESI
Fragmentation mode: HCD
Collision energy: 40 % (nominal)
Resolution: 15000
Column name: XBridge C18 3.5um, 2.1x50mm, Waters
Retention time: 4.523 min
Base peak: 310.1256
Precursor m/z: 310.126
Precursor type: [M+H]+
m/z	relative intensity	assigned
55.0416	18	C3H5N+
55.0542	12	C4H7+
58.0651	34	C3H8N+
67.0544	16	C5H7+
68.0495	52	C4H6N+
70.0652	39	C4H8N+
79.0543	45	C6H7+
81.0572	41	C5H7N+
82.0651	217	C5H8N+
91.0543	28	C7H7+
94.0651	75	C6H8N+
96.0808	999	C6H10N+
97.0109	61	C5H5S+
97.0885	95	C6H11N+
105.0697	14	C8H9+
110.99	11	C5H3OS+
111.0261	21	C6H7S+
115.0545	22	C9H7+
117.0697	27	C9H9+
123.0264	28	C7H7S+
129.0698	68	C10H9+
141.07	40	C11H9+
155.0855	29	C12H11+
165.0701	25	C13H9+
178.0783	38	C14H10+
179.0856	23	C14H11+
184.0344	38	C12H8S+
185.0419	57	C12H9S+
190.0775	50	C15H10+
191.0851	28	C15H11+
197.0419	84	C13H9S+
202.0777	211	C16H10+
205.1013	61	C16H13+
210.0493	18	C14H10S+
211.0572	25	C14H11S+
213.0371	117	C13H9OS+
215.0857	19	C17H11+
221.0418	53	C15H9S+
223.0576	23	C15H11S+
234.0499	71	C16H10S+
235.0569	13	C16H11S+
