Mass spectrum: Nifedipine; LC-ESI-QFT; MS2; CE: 30%; R=15000; [M+H]+
Name: Nifedipine
Name: dimethyl 2,6-dimethyl-4-(2-nitrophenyl)-1,4-dihydropyridine-3,5-dicarboxylate
Formula: C17H18N2O6
Exact mass: 346.1164863
SMILES: CC1=C(C(C(=C(N1)C)C(=O)OC)C2=CC=CC=C2[N+](=O)[O-])C(=O)OC
InChI: InChI=1S/C17H18N2O6/c1-9-13(16(20)24-3)15(14(10(2)18-9)17(21)25-4)11-7-5-6-8-12(11)19(22)23/h5-8,15,18H,1-4H3
Instrument: Exploris 240 Thermo Scientific
Instrument type: LC-ESI-QFT
Ms type: MS2
Ion mode: POSITIVE
Ionization: ESI
Fragmentation mode: HCD
Collision energy: 30 % (nominal)
Resolution: 15000
Column name: XBridge C18 3.5um, 2.1x50mm, Waters
Retention time: 7.287 min
Base peak: 347.1235
Precursor m/z: 347.1238
Precursor type: [M+H]+
m/z	relative intensity	assigned
115.0539	130	C9H7+
122.0236	88	C6H4NO2+
140.0496	45	C10H6N+
142.0651	148	C10H8N+
155.06	38	C10H7N2+
156.0807	49	C11H10N+
166.0654	68	C12H8N+
168.0653	26	C8H10NO3+
169.0762	63	C11H9N2+
170.0602	223	C11H8NO+
181.0759	168	C12H9N2+
182.0832	168	C12H10N2+
183.0914	218	C12H11N2+
193.0761	323	C13H9N2+
194.0837	999	C13H10N2+
195.0916	990	C13H11N2+
196.0993	349	C13H12N2+
202.0779	582	C16H10+
211.0861	252	C13H11N2O+
213.066	65	C12H9N2O2+
214.0504	77	C12H8NO3+
221.071	141	C14H9N2O+
222.0791	80	C14H10N2O+
223.0865	727	C14H11N2O+
226.0872	277	C14H12NO2+
239.0816	464	C14H11N2O2+
253.0971	625	C15H13N2O2+
254.1058	541	C15H14N2O2+
270.0752	120	C15H12NO4+
