Mass spectrum: Imidacloprid; LC-ESI-QFT; MS2; CE: 120%; R=15000; [M+H]+
Name: Imidacloprid
Name: N-[1-[(6-chloro-3-pyridinyl)methyl]-4,5-dihydroimidazol-2-yl]nitramide
Name: N-[1-[(6-chloropyridin-3-yl)methyl]-4,5-dihydroimidazol-2-yl]nitramide
Formula: C9H10ClN5O2
Exact mass: 255.0523022
SMILES: [O-][N+](=O)\N=C1/NCCN1CC1=CN=C(Cl)C=C1
InChI: InChI=1S/C9H10ClN5O2/c10-8-2-1-7(5-12-8)6-14-4-3-11-9(14)13-15(16)17/h1-2,5H,3-4,6H2,(H,11,13)
Instrument: Q Exactive Plus
Instrument type: LC-ESI-QFT
Ms type: MS2
Ion mode: POSITIVE
Ionization: ESI
Fragmentation mode: HCD
Collision energy: 120 % (nominal)
Resolution: 15000
Column name: XBridge C18 3.5um, 2.1x50mm, Waters
Retention time: 4.086 min
Base peak: 256.0597
Precursor m/z: 256.0596
Precursor type: [M+H]+
Precursor intensity: 237713302.75
m/z	relative intensity	assigned
50.0151	74	C4H2+
51.023	130	C4H3+
53.0386	105	C4H5+
54.0338	113	C3H4N+
56.0495	186	C3H6N+
57.0448	94	C2H5N2+
61.9793	20	CHClN+
63.0229	200	C5H3+
64.0182	32	C4H2N+
64.0308	30	C5H4+
65.0386	317	C5H5+
66.0339	46	C4H4N+
67.0416	60	C4H5N+
68.0495	83	C4H6N+
69.0448	180	C3H5N2+
71.0603	53	C3H7N2+
72.9839	210	C3H2Cl+
76.0182	68	C5H2N+
77.0259	75	C5H3N+
78.0338	596	C5H4N+
79.0416	61	C5H5N+
79.0541	55	C6H7+
80.0494	505	C5H6N+
81.0574	46	C5H7N+
82.0286	39	C4H4NO+
84.0557	312	C3H6N3+
90.0339	290	C6H4N+
91.0417	232	C6H5N+
92.0369	196	C5H4N2+
92.0495	196	C6H6N+
93.0447	250	C5H5N2+
93.0572	92	C6H7N+
95.0491	140	C6H7O+
95.0602	96	C5H7N2+
96.0444	446	C5H6NO+
98.9996	245	C5H4Cl+
103.0293	142	C6H3N2+
104.0494	221	C7H6N+
105.0448	999	C6H5N2+
106.0528	190	C6H6N2+
106.065	168	C7H8N+
107.0604	211	C6H7N2+
108.0682	67	C6H8N2+
109.0523	80	C6H7NO+
109.0634	184	C5H7N3+
113.0026	79	C5H4ClN+
116.037	30	C7H4N2+
117.0449	103	C7H5N2+
117.0572	63	C8H7N+
118.0401	146	C6H4N3+
118.0526	336	C7H6N2+
119.0476	74	C6H5N3+
119.0605	350	C7H7N2+
120.0557	457	C6H6N3+
121.0397	158	C6H5N2O+
121.0637	39	C6H7N3+
122.0713	54	C6H8N3+
123.0552	179	C6H7N2O+
125.998	21	C5H3ClN2+
126.0105	119	C6H5ClN+
127.0184	163	C6H6ClN+
128.0263	25	C6H7ClN+
130.0054	53	C5H5ClNO+
130.0402	106	C7H4N3+
131.0479	75	C7H5N3+
131.0604	269	C8H7N2+
133.0635	262	C7H7N3+
133.0756	74	C8H9N2+
135.055	75	C7H7N2O+
135.0787	30	C7H9N3+
139.0058	130	C6H4ClN2+
141.0213	130	C6H6ClN2+
144.9926	42	C5H4ClNO2+
146.0712	369	C8H8N3+
147.0556	43	C5H10ClN3+
147.0666	298	C7H7N4+
148.0869	95	C8H10N3+
153.0088	140	C6H4ClN3+
154.0166	37	C6H5ClN3+
156.0554	35	C9H6N3+
157.0636	185	C9H7N3+
158.0713	278	C9H8N3+
159.0665	40	C8H7N4+
159.079	294	C9H9N3+
163.0619	43	C4H10ClN5+
166.0167	162	C7H5ClN3+
173.0823	445	C9H9N4+
174.0901	171	C9H10N4+
175.0978	24	C9H11N4+
180.0195	187	C7H5ClN4+
181.0276	66	C7H6ClN4+
207.0433	56	C9H8ClN4+
208.0512	66	C9H9ClN4+
209.0588	123	C9H10ClN4+
