Mass spectrum: Prazosin; LC-ESI-QFT; MS2; CE: 75%; R=17500; [M-H]-
Name: Prazosin
Name: [4-(4-amino-6,7-dimethoxyquinazolin-2-yl)piperazin-1-yl]-(furan-2-yl)methanone
Formula: C19H21N5O4
Exact mass: 383.159354152
SMILES: COC1=C(C=C2C(=C1)C(=NC(=N2)N3CCN(CC3)C(=O)C4=CC=CO4)N)OC
InChI: InChI=1S/C19H21N5O4/c1-26-15-10-12-13(11-16(15)27-2)21-19(22-17(12)20)24-7-5-23(6-8-24)18(25)14-4-3-9-28-14/h3-4,9-11H,5-8H2,1-2H3,(H2,20,21,22)
Instrument: Exploris 240 Orbitrap Thermo Scientific
Instrument type: LC-ESI-QFT
Ms type: MS2
Ion mode: NEGATIVE
Ionization: ESI
Fragmentation mode: HCD
Collision energy: 75 % (nominal)
Resolution: 17500
Column name: XBridge C18 3.5um, 2.1x50mm, Waters
Retention time: 4.825 min
Base peak: 382.152
Precursor m/z: 382.1521
Precursor type: [M-H]-
m/z	relative intensity	assigned
67.019	124	C4H3O-
67.0302	345	C3H3N2-
81.0458	197	C4H5N2-
110.0247	240	C5H4NO2-
119.0253	152	C6H3N2O-
144.0207	90	C7H2N3O-
145.0282	61	C7H3N3O-
145.0408	27	C8H5N2O-
147.0199	137	C7H3N2O2-
172.0514	228	C9H6N3O-
173.0594	27	C9H7N3O-
187.0627	389	C9H7N4O-
199.0637	58	C12H9NO2-
201.0548	75	C10H7N3O2-
201.0785	188	C10H9N4O-
213.0426	94	C10H5N4O2-
213.0778	259	C11H9N4O-
214.0496	999	C10H6N4O2-
215.0574	821	C10H7N4O2-
228.0654	50	C11H8N4O2-
229.073	292	C11H9N4O2-
230.0818	51	C11H10N4O2-
241.0736	276	C12H9N4O2-
