Mass spectrum: Tolclofos-methyl; LC-ESI-QFT; MS2; CE: 90%; R=15000; [M+H]+
Name: Tolclofos-methyl
Name: (2,6-dichloro-4-methylphenoxy)-dimethoxy-sulfanylidene-lambda5-phosphane
Formula: C9H11Cl2O3PS
Exact mass: 299.9543572
SMILES: COP(=S)(OC)OC1=C(Cl)C=C(C)C=C1Cl
InChI: InChI=1S/C9H11Cl2O3PS/c1-6-4-7(10)9(8(11)5-6)14-15(16,12-2)13-3/h4-5H,1-3H3
Instrument: Q Exactive Plus
Instrument type: LC-ESI-QFT
Ms type: MS2
Ion mode: POSITIVE
Ionization: ESI
Fragmentation mode: HCD
Collision energy: 90 % (nominal)
Resolution: 15000
Column name: XBridge C18 3.5um, 2.1x50mm, Waters
Retention time: 12.151 min
Base peak: 300.9617
Precursor m/z: 300.9616
Precursor type: [M+H]+
Precursor intensity: 57974677.45
m/z	relative intensity	assigned
50.0151	20	C4H2+
51.023	123	C4H3+
53.0023	44	C3HO+
53.0385	24	C4H5+
59.9665	45	COS+
62.0185	91	C2H6S+
62.9453	66	PS+
62.9993	22	CH4OP+
65.0386	35	C5H5+
74.015	28	C6H2+
75.0229	352	C6H3+
77.0386	17	C6H5+
78.9943	748	CH4O2P+
86.9996	174	C4H4Cl+
93.01	55	C2H6O2P+
93.0335	54	C6H5O+
94.0412	27	C6H6O+
95.0491	72	C6H7O+
97.0047	16	CH6O3P+
108.057	11	C7H8O+
109.0107	139	C6H5S+
110.9996	164	C6H4Cl+
111.0441	88	C6H7O2+
112.0074	999	C6H5Cl+
121.0105	27	C7H5S+
124.9817	20	C2H6O2PS+
125.0152	20	C7H6Cl+
127.0155	39	C3H8ClO3+
129.0101	745	C6H6ClO+
137.0055	35	C7H5OS+
141.0103	16	C7H6ClO+
143.9795	103	C6H5ClS+
146.9763	353	C6H5Cl2+
155.9794	25	C6H5OPS+
174.9712	157	C7H5Cl2O+
218.9429	42	C7H5ClO2PS+
