Mass spectrum: Bicalutamide; LC-ESI-QFT; MS2; CE: 30%; R=15000; [M-H]-
Name: Bicalutamide
Name: N-[4-cyano-3-(trifluoromethyl)phenyl]-3-(4-fluorophenyl)sulfonyl-2-hydroxy-2-methylpropanamide
Formula: C18H14F4N2O4S
Exact mass: 430.0610408
SMILES: CC(O)(CS(=O)(=O)C1=CC=C(F)C=C1)C(=O)NC1=CC(=C(C=C1)C#N)C(F)(F)F
InChI: InChI=1S/C18H14F4N2O4S/c1-17(26,10-29(27,28)14-6-3-12(19)4-7-14)16(25)24-13-5-2-11(9-23)15(8-13)18(20,21)22/h2-8,26H,10H2,1H3,(H,24,25)
Instrument: Q Exactive Plus
Instrument type: LC-ESI-QFT
Ms type: MS2
Ion mode: NEGATIVE
Ionization: ESI
Fragmentation mode: HCD
Collision energy: 30 % (nominal)
Resolution: 15000
Column name: XBridge C18 3.5um, 2.1x50mm, Waters
Retention time: 8.393 min
Base peak: 429.0536
Precursor m/z: 429.0538
Precursor type: [M-H]-
Precursor intensity: 221455573.12
m/z	relative intensity	assigned
158.992	30	C6H4FO2S-
173.0077	94	C7H6FO2S-
184.0379	150	C9H5F3N-
185.0331	167	C5H9F2NO2S-
243.0134	20	C10H8FO4S-
255.0387	999	C11H6F3N2O2-
411.0432	10	C18H11F4N2O3S-
