Mass spectrum: Bicalutamide; LC-ESI-QFT; MS2; CE: 75%; R=15000; [M+H]+
Name: Bicalutamide
Name: N-[4-cyano-3-(trifluoromethyl)phenyl]-3-(4-fluorophenyl)sulfonyl-2-hydroxy-2-methylpropanamide
Formula: C18H14F4N2O4S
Exact mass: 430.0610408
SMILES: CC(O)(CS(=O)(=O)C1=CC=C(F)C=C1)C(=O)NC1=CC(=C(C=C1)C#N)C(F)(F)F
InChI: InChI=1S/C18H14F4N2O4S/c1-17(26,10-29(27,28)14-6-3-12(19)4-7-14)16(25)24-13-5-2-11(9-23)15(8-13)18(20,21)22/h2-8,26H,10H2,1H3,(H,24,25)
Instrument: Q Exactive Plus
Instrument type: LC-ESI-QFT
Ms type: MS2
Ion mode: POSITIVE
Ionization: ESI
Fragmentation mode: HCD
Collision energy: 75 % (nominal)
Resolution: 15000
Column name: XBridge C18 3.5um, 2.1x50mm, Waters
Retention time: 8.374 min
Base peak: 164.9846
Precursor m/z: 431.0683
Precursor type: [M+H]+
Precursor intensity: 31308584.26
m/z	relative intensity	assigned
50.0151	28	C4H2+
51.023	77	C4H3+
53.0022	11	C3HO+
71.0292	97	C4H4F+
74.0151	22	C6H2+
75.0229	150	C6H3+
79.0178	30	C5H3O+
93.0336	19	C6H5O+
95.0291	84	C6H4F+
99.0241	24	C5H4FO+
111.024	11	C6H4FO+
111.0442	33	C6H7O2+
113.0397	741	C6H6FO+
115.0013	54	C5H4FS+
118.0525	42	C7H6N2+
123.0353	999	C6H4FN2+
140.0308	15	C7H4F2N+
142.9962	112	F4H3O4+
158.9911	67	C6H4FO2S+
165.0459	77	C8H6FN2O+
167.0414	36	C8H5F2N2+
185.0521	353	C8H7F2N2O+
187.0478	37	C8H6F3N2+
