Mass spectrum: Lacidipine; LC-ESI-QFT; MS2; CE: 30%; R=15000; [M+H]+
Name: Lacidipine
Name: 2,6-Dimethyl-4-[2-[3-[(2-methylpropan-2-yl)oxy]-3-oxoprop-1-enyl]phenyl]-1,4-dihydropyridine-3,5-dicarboxylic acid diethyl ester
Name: diethyl 2,6-dimethyl-4-[2-[3-[(2-methylpropan-2-yl)oxy]-3-oxoprop-1-enyl]phenyl]-1,4-dihydropyridine-3,5-dicarboxylate
Formula: C26H33NO6
Exact mass: 455.2307878
SMILES: CCOC(=O)C1=C(NC(=C(C1C2=CC=CC=C2C=CC(=O)OC(C)(C)C)C(=O)OCC)C)C
InChI: InChI=1S/C26H33NO6/c1-8-31-24(29)21-16(3)27-17(4)22(25(30)32-9-2)23(21)19-13-11-10-12-18(19)14-15-20(28)33-26(5,6)7/h10-15,23,27H,8-9H2,1-7H3
Instrument: Exploris 240 Thermo Scientific
Instrument type: LC-ESI-QFT
Ms type: MS2
Ion mode: POSITIVE
Ionization: ESI
Fragmentation mode: HCD
Collision energy: 30 % (nominal)
Resolution: 15000
Column name: XBridge C18 3.5um, 2.1x50mm, Waters
Retention time: 13.170 min
Base peak: 354.1335
Precursor m/z: 456.2381
Precursor type: [M+H]+
m/z	relative intensity	assigned
268.1334	170	C17H18NO2+
310.1439	262	C19H20NO3+
354.1333	766	C20H20NO5+
382.166	115	C22H24NO5+
400.1758	999	C22H26NO6+
