Mass spectrum: Losartan-carboxylic acid; LC-ESI-QFT; MS2; CE: 120%; R=17500; [M+H]+
Name: Losartan-carboxylic acid
Name: Losartan carboxylic acid
Name: 2-butyl-5-chloro-3-[[4-[2-(2H-tetrazol-5-yl)phenyl]phenyl]methyl]imidazole-4-carboxylic acid
Formula: C22H21ClN6O2
Exact mass: 436.1414516
SMILES: CCCCC1=NC(=C(N1CC2=CC=C(C=C2)C3=CC=CC=C3C4=NNN=N4)C(=O)O)Cl
InChI: InChI=1S/C22H21ClN6O2/c1-2-3-8-18-24-20(23)19(22(30)31)29(18)13-14-9-11-15(12-10-14)16-6-4-5-7-17(16)21-25-27-28-26-21/h4-7,9-12H,2-3,8,13H2,1H3,(H,30,31)(H,25,26,27,28)
Instrument: Exploris 240 Orbitrap Thermo Scientific
Instrument type: LC-ESI-QFT
Ms type: MS2
Ion mode: POSITIVE
Ionization: ESI
Fragmentation mode: HCD
Collision energy: 120 % (nominal)
Resolution: 17500
Column name: XBridge C18 3.5um, 2.1x50mm, Waters
Retention time: 8.222 min
Base peak: 437.1482
Precursor m/z: 437.1487
Precursor type: [M+H]+
m/z	relative intensity	assigned
51.023	67	C4H3+
53.0387	16	C4H5+
63.0232	11	C5H3+
75.0231	10	C6H3+
77.0385	121	C6H5+
80.0496	27	C5H6N+
89.0388	27	C7H5+
95.0493	35	C6H7O+
102.034	19	C7H4N+
105.0449	40	C6H5N2+
113.0389	37	C9H5+
114.0465	25	C9H6+
115.0541	79	C9H7+
116.0496	12	C8H6N+
125.0387	18	C10H5+
126.0466	22	C10H6+
127.0541	81	C10H7+
128.0623	41	C10H8+
129.0442	12	C8H5N2+
137.0385	9	C11H5+
138.0466	48	C11H6+
139.0539	72	C11H7+
140.0494	159	C10H6N+
140.0625	16	C11H8+
141.0573	14	C10H7N+
145.0649	19	C10H9O+
150.0464	72	C12H6+
151.0542	284	C12H7+
152.062	999	C12H8+
153.0571	24	C11H7N+
153.0701	76	C12H9+
154.0651	13	C11H8N+
155.0602	73	C10H7N2+
162.0467	19	C13H6+
163.0542	293	C13H7+
165.0565	31	C12H7N+
166.0653	39	C12H8N+
169.0651	95	C12H9O+
176.0622	152	C14H8+
178.0651	135	C13H8N+
180.0809	29	C13H10N+
188.0497	45	C14H6N+
189.057	54	C14H7N+
190.0651	349	C14H8N+
192.0681	39	C13H8N2+
196.0764	11	C10H13ClN2+
205.0761	270	C14H9N2+
