Mass spectrum: Prothioconazole; LC-ESI-QFT; MS2; CE: 60%; R=15000; [M+H]+
Name: Prothioconazole
Name: 2-[2-(1-chlorocyclopropyl)-3-(2-chlorophenyl)-2-hydroxypropyl]-1H-1,2,4-triazole-3-thione
Formula: C14H15Cl2N3OS
Exact mass: 343.0312885
SMILES: C1CC1(C(CC2=CC=CC=C2Cl)(CN3C(=S)N=CN3)O)Cl
InChI: InChI=1S/C14H15Cl2N3OS/c15-11-4-2-1-3-10(11)7-14(20,13(16)5-6-13)8-19-12(21)17-9-18-19/h1-4,9,20H,5-8H2,(H,17,18,21)
Instrument: Exploris 240 Thermo Scientific
Instrument type: LC-ESI-QFT
Ms type: MS2
Ion mode: POSITIVE
Ionization: ESI
Fragmentation mode: HCD
Collision energy: 60 % (nominal)
Resolution: 15000
Column name: XBridge C18 3.5um, 2.1x50mm, Waters
Retention time: 11.770 min
Base peak: 344.0382
Precursor m/z: 344.0386
Precursor type: [M+H]+
m/z	relative intensity	assigned
55.0291	78	C2H3N2+
74.9994	72	C3H4Cl+
102.0119	440	C2H4N3S+
114.0119	367	C3H4N3S+
125.0151	999	C7H6Cl+
128.062	101	C10H8+
145.0645	21	C10H9O+
149.015	200	C9H6Cl+
153.0697	411	CH16ClN3OS+
154.0775	939	C12H10+
155.0853	100	C12H11+
158.9759	40	C7H5Cl2+
162.0228	273	C10H7Cl+
163.0305	133	C10H8Cl+
166.0432	230	C7H8N3S+
182.9761	24	C9H5Cl2+
189.0218	63	C10H6ClN2+
189.0465	260	C12H10Cl+
196.9912	63	C10H7Cl2+
