Mass spectrum: Nitrofurantoin; LC-ESI-QFT; MS2; CE: 45%; R=15000; [M+H]+
Name: Nitrofurantoin
Name: 1-[(5-Nitro-2-furanyl)methylideneamino]imidazolidine-2,4-dione
Name: 1-[(5-nitrofuran-2-yl)methylideneamino]imidazolidine-2,4-dione
Formula: C8H6N4O5
Exact mass: 238.0338193
SMILES: [O-][N+](=O)C1=CC=C(O1)C=NN1CC(=O)NC1=O
InChI: InChI=1S/C8H6N4O5/c13-6-4-11(8(14)10-6)9-3-5-1-2-7(17-5)12(15)16/h1-3H,4H2,(H,10,13,14)
Instrument: Q Exactive Plus
Instrument type: LC-ESI-QFT
Ms type: MS2
Ion mode: POSITIVE
Ionization: ESI
Fragmentation mode: HCD
Collision energy: 45 % (nominal)
Resolution: 15000
Column name: XBridge C18 3.5um, 2.1x50mm, Waters
Retention time: 3.220 min
Base peak: 164.9847
Precursor m/z: 239.0411
Precursor type: [M+H]+
Precursor intensity: 8988663.19
m/z	relative intensity	assigned
55.0292	15	C2H3N2+
57.0209	14	C2H3NO+
64.0183	19	C4H2N+
67.0417	749	C4H5N+
79.0178	35	C5H3O+
80.0131	30	C4H2NO+
82.0051	43	C4H2O2+
82.0163	21	C3H2N2O+
82.0289	21	C4H4NO+
83.0366	123	C4H5NO+
93.0213	35	C5H3NO+
93.0448	113	C5H5N2+
94.0163	12	C4H2N2O+
94.0289	21	C5H4NO+
94.0527	54	C5H6N2+
95.0367	471	C5H5NO+
98.035	159	C3H4N3O+
100.0268	250	C3H4N2O2+
101.0348	12	C3H5N2O2+
109.0161	14	C5H3NO2+
110.0239	30	C5H4NO2+
111.0316	157	C5H5NO2+
121.0398	163	C6H5N2O+
122.0112	999	C5H2N2O2+
124.0271	24	C5H4N2O2+
126.0299	43	C4H4N3O2+
137.0346	21	C6H5N2O2+
138.0426	19	C6H6N2O2+
139.014	287	C5H3N2O3+
149.0348	170	C7H5N2O2+
151.0379	43	C6H5N3O2+
157.0247	22	C5H5N2O4+
168.0406	183	C6H6N3O3+
222.0386	179	C8H6N4O4+
