Mass spectrum: 4-Hydroxypropanolol-sulfate; LC-ESI-QFT; MS2; CE: 60%; R=17500; [M+H]+
Name: 4-Hydroxypropanolol-sulfate
Name: 4-[2-Hydroxy-3-(propan-2-ylamino)propoxy]naphthalen-1-yl hydrogen sulfate
Name: [4-[2-hydroxy-3-(propan-2-ylamino)propoxy]naphthalen-1-yl] hydrogen sulfate
Name: HOPS
Formula: C16H21NO6S
Exact mass: 355.1089584
SMILES: CC(C)NCC(COC1=CC=C(C2=CC=CC=C21)OS(=O)(=O)O)O
InChI: InChI=1S/C16H21NO6S/c1-11(2)17-9-12(18)10-22-15-7-8-16(23-24(19,20)21)14-6-4-3-5-13(14)15/h3-8,11-12,17-18H,9-10H2,1-2H3,(H,19,20,21)
Instrument: Exploris 240 Orbitrap Thermo Scientific
Instrument type: LC-ESI-QFT
Ms type: MS2
Ion mode: POSITIVE
Ionization: ESI
Fragmentation mode: HCD
Collision energy: 60 % (nominal)
Resolution: 17500
Column name: XBridge C18 3.5um, 2.1x50mm, Waters
Retention time: 3.203 min
Base peak: 356.1162
Precursor m/z: 356.1162
Precursor type: [M+H]+
m/z	relative intensity	assigned
56.0495	417	C3H6N+
58.0651	999	C3H8N+
60.0808	45	C3H10N+
72.0808	568	C4H10N+
74.06	363	C3H8NO+
84.081	47	C5H10N+
86.0965	29	C5H12N+
98.0964	110	C6H12N+
100.112	206	C6H14N+
105.0336	23	C7H5O+
115.0545	11	C9H7+
116.107	498	C6H14NO+
117.0705	16	C9H9+
143.0856	35	C11H11+
145.0652	41	C10H9O+
153.07	52	C12H9+
157.0649	60	C11H9O+
159.0444	42	C10H7O2+
160.0517	14	C10H8O2+
171.0805	125	C12H11O+
173.0597	226	C11H9O2+
181.0651	37	C13H9O+
199.075	116	C13H11O2+
276.1591	11	C16H22NO3+
