Mass spectrum: 5-Hydroxysulfapyridine; LC-ESI-QFT; MS2; CE: 90%; R=17500; [M+H]+
Name: 5-Hydroxysulfapyridine
Name: Benzenesulfonamide, 4-amino-N-(5-hydroxy-2-pyridinyl)-
Name: 4-amino-N-(5-hydroxypyridin-2-yl)benzenesulfonamide
Formula: C11H11N3O3S
Exact mass: 265.0521122
SMILES: C1=CC(=CC=C1N)S(=O)(=O)NC2=NC=C(C=C2)O
InChI: InChI=1S/C11H11N3O3S/c12-8-1-4-10(5-2-8)18(16,17)14-11-6-3-9(15)7-13-11/h1-7,15H,12H2,(H,13,14)
Instrument: Exploris 240 Orbitrap Thermo Scientific
Instrument type: LC-ESI-QFT
Ms type: MS2
Ion mode: POSITIVE
Ionization: ESI
Fragmentation mode: HCD
Collision energy: 90 % (nominal)
Resolution: 17500
Column name: XBridge C18 3.5um, 2.1x50mm, Waters
Retention time: 2.562 min
Base peak: 266.0591
Precursor m/z: 266.0594
Precursor type: [M+H]+
m/z	relative intensity	assigned
54.0338	77	C3H4N+
55.0416	59	C3H5N+
65.0385	662	C5H5+
80.0494	149	C5H6N+
81.0447	135	C4H5N2+
82.0289	29	C4H4NO+
82.0525	570	C4H6N2+
83.0367	15	C4H5NO+
83.0603	14	C4H7N2+
92.0494	999	C6H6N+
93.0572	246	C6H7N+
94.0289	14	C5H4NO+
94.0653	21	C6H8N+
108.0444	619	C6H6NO+
109.0395	14	C5H5N2O+
110.0476	310	C5H6N2O+
110.0598	48	C6H8NO+
111.0553	209	C5H7N2O+
112.0395	29	C5H6NO2+
145.0761	9	C9H9N2+
155.0601	18	C10H7N2+
172.0866	44	C10H10N3+
183.0555	104	C11H7N2O+
199.074	36	C11H9N3O+
200.082	108	C11H10N3O+
