Mass spectrum: Valeryl-4-hydroxyvalsartan; LC-ESI-QFT; MS2; CE: 30%; R=17500; [M+H]+
Name: Valeryl-4-hydroxyvalsartan
Name: 2-[4-hydroxypentanoyl-[[4-[2-(2H-tetrazol-5-yl)phenyl]phenyl]methyl]amino]-3-methylbutanoic acid
Formula: C24H29N5O4
Exact mass: 451.2219544
SMILES: CC(C)C(C(=O)O)N(CC1=CC=C(C=C1)C2=CC=CC=C2C3=NNN=N3)C(=O)CCC(C)O
InChI: InChI=1S/C24H29N5O4/c1-15(2)22(24(32)33)29(21(31)13-8-16(3)30)14-17-9-11-18(12-10-17)19-6-4-5-7-20(19)23-25-27-28-26-23/h4-7,9-12,15-16,22,30H,8,13-14H2,1-3H3,(H,32,33)(H,25,26,27,28)
Instrument: Exploris 240 Orbitrap Thermo Scientific
Instrument type: LC-ESI-QFT
Ms type: MS2
Ion mode: POSITIVE
Ionization: ESI
Fragmentation mode: HCD
Collision energy: 30 % (nominal)
Resolution: 17500
Column name: XBridge C18 3.5um, 2.1x50mm, Waters
Retention time: 6.688 min
Base peak: 452.2288
Precursor m/z: 452.2292
Precursor type: [M+H]+
m/z	relative intensity	assigned
72.0806	7	C4H10N+
84.0807	25	C5H10N+
101.0595	5	C5H9O2+
118.0863	5	C5H12NO2+
154.1226	19	C9H16NO+
178.078	47	C14H10+
179.0855	120	C14H11+
180.0807	43	C13H10N+
190.0656	35	C14H8N+
200.1282	53	C10H18NO3+
206.0833	15	C14H10N2+
207.0917	861	C14H11N2+
218.1379	4	C10H20NO4+
235.0978	999	C14H11N4+
306.1711	60	C18H20N5+
352.1775	19	C19H22N5O2+
434.2178	16	C24H28N5O3+
