Mass spectrum: Quinoxyfen; LC-ESI-QFT; MS2; CE: 75%; R=15000; [M+H]+
Name: Quinoxyfen
Name: 5,7-dichloro-4-(4-fluorophenoxy)quinoline
Formula: C15H8Cl2FNO
Exact mass: 306.9966975
SMILES: FC1=CC=C(OC2=CC=NC3=CC(Cl)=CC(Cl)=C23)C=C1
InChI: InChI=1S/C15H8Cl2FNO/c16-9-7-12(17)15-13(8-9)19-6-5-14(15)20-11-3-1-10(18)2-4-11/h1-8H
Instrument: Q Exactive Plus
Instrument type: LC-ESI-QFT
Ms type: MS2
Ion mode: POSITIVE
Ionization: ESI
Fragmentation mode: HCD
Collision energy: 75 % (nominal)
Resolution: 15000
Column name: XBridge C18 3.5um, 2.1x50mm, Waters
Retention time: 13.956 min
Base peak: 308.0044
Precursor m/z: 308.004
Precursor type: [M+H]+
Precursor intensity: 283474084.27
m/z	relative intensity	assigned
51.023	30	C4H3+
71.0291	22	C4H4F+
74.0151	38	C6H2+
75.0229	232	C6H3+
95.0292	69	C6H4F+
113.0398	201	C6H6FO+
114.034	18	C8H4N+
115.0417	38	C8H5N+
122.9997	121	C7H4Cl+
132.0446	23	C8H6NO+
133.052	23	C8H7NO+
150.0105	89	C8H5ClN+
151.0186	21	C8H6ClN+
161.0031	11	C9H4ClN+
162.0105	916	C9H5ClN+
166.0054	18	C8H5ClNO+
168.0211	80	C8H7ClNO+
169.9681	20	C8H4Cl2+
179.0133	46	C9H6ClNO+
180.0213	27	C9H7ClNO+
184.9795	141	C8H5Cl2N+
195.9716	10	C9H4Cl2N+
196.9795	999	C9H5Cl2N+
208.0557	20	C14H7FN+
209.0638	89	C14H8FN+
210.0718	55	C14H9FN+
212.974	17	C9H5Cl2NO+
213.9821	860	C9H6Cl2NO+
217.0219	16	C13H7ClF+
225.0342	54	C14H8ClN+
237.0584	163	C15H8FNO+
238.0664	14	C15H9FNO+
244.0323	73	C14H8ClFN+
245.0405	102	C14H9ClFN+
253.0289	23	C15H8ClNO+
254.0367	11	C15H9ClNO+
272.0273	216	C15H8ClFNO+
308.0041	42	C15H9Cl2FNO+
