Mass spectrum: N-Desmethylrosuvastatin; LC-ESI-QFT; MS2; CE: 120%; R=17500; [M+H]+
Name: N-Desmethylrosuvastatin
Name: 7-[4-(4-fluorophenyl)-2-(methanesulfonamido)-6-propan-2-ylpyrimidin-5-yl]-3,5-dihydroxyhept-6-enoic acid
Formula: C21H26FN3O6S
Exact mass: 467.1526348
SMILES: CC(C)C1=NC(=NC(=C1C=CC(CC(CC(=O)O)O)O)C2=CC=C(C=C2)F)NS(=O)(=O)C
InChI: InChI=1S/C21H26FN3O6S/c1-12(2)19-17(9-8-15(26)10-16(27)11-18(28)29)20(13-4-6-14(22)7-5-13)24-21(23-19)25-32(3,30)31/h4-9,12,15-16,26-27H,10-11H2,1-3H3,(H,28,29)(H,23,24,25)
Instrument: Exploris 240 Orbitrap Thermo Scientific
Instrument type: LC-ESI-QFT
Ms type: MS2
Ion mode: POSITIVE
Ionization: ESI
Fragmentation mode: HCD
Collision energy: 120 % (nominal)
Resolution: 17500
Column name: XBridge C18 3.5um, 2.1x50mm, Waters
Retention time: 5.375 min
Base peak: 468.1593
Precursor m/z: 468.1599
Precursor type: [M+H]+
m/z	relative intensity	assigned
53.0387	39	C4H5+
54.0338	21	C3H4N+
65.0386	51	C5H5+
66.0339	27	C4H4N+
67.0544	53	C5H7+
68.0496	48	C4H6N+
69.0338	19	C4H5O+
75.0232	54	C6H3+
77.0385	188	C6H5+
78.034	53	C5H4N+
79.0416	45	C5H5N+
79.0542	126	C6H7+
80.0496	51	C5H6N+
83.0292	30	C5H4F+
91.0543	117	C7H7+
92.0496	42	C6H6N+
93.0446	83	C5H5N2+
93.0573	66	C6H7N+
94.0652	66	C6H8N+
95.0293	114	C6H4F+
95.0493	66	C6H7O+
96.0446	22	C5H6NO+
103.0542	91	C8H7+
104.0494	55	C7H6N+
105.0447	97	C6H5N2+
106.0652	47	C7H8N+
109.045	146	C7H6F+
113.0401	69	C6H6FO+
115.0542	48	C9H7+
118.065	26	C8H8N+
119.0601	155	C7H7N2+
121.0448	57	C8H6F+
121.0759	44	C7H9N2+
122.04	454	C7H5FN+
123.0354	276	C6H4FN2+
125.0386	53	C10H5+
127.0541	83	C5H6FN3+
130.0655	29	C9H8N+
131.0606	24	C2H13NO3S+
133.0447	999	C9H6F+
134.0405	27	C8H5FN+
144.0554	45	C8H6N3+
145.0447	88	C10H6F+
146.0397	37	C6H10O2S+
146.0528	222	C10H7F+
147.0351	144	C8H4FN2+
147.0602	59	C10H8F+
148.0559	83	C9H7FN+
152.0622	67	C12H8+
155.0605	62	C4H13NO3S+
157.0451	82	C11H6F+
160.055	24	C2H11FN3O2S+
161.0631	98	C7H13O2S+
163.0555	34	C10H8FO+
165.0701	91	C13H9+
171.061	66	C3H11N2O6+
172.0552	165	C8H12O2S+
173.0497	160	C7H11NO2S+
174.0715	65	C5H15FO3S+
175.0674	35	C4H14FNO3S+
183.0606	221	C13H8F+
184.0545	174	C4H11FN3O2S+
185.0635	482	C4H12FN3O2S+
187.0652	95	C2H16FO6S+
188.0875	42	C6H17FO3S+
208.0567	61	C14H7FN+
213.0821	34	C13H10FN2+
223.0668	199	C14H8FN2+
225.0828	63	C8H16FNO3S+
226.077	47	C10H14N2O2S+
227.0848	176	C10H15N2O2S+
228.0934	250	C18H12+
237.0824	54	C12H15NO2S+
240.0931	309	C11H16N2O2S+
