Mass spectrum: Metolachlor; LC-ESI-QFT; MS2; CE: 150%; R=15000; [M+H]+
Name: Metolachlor
Name: 2-chloro-N-(2-ethyl-6-methylphenyl)-N-(1-methoxypropan-2-yl)acetamide
Formula: C15H22ClNO2
Exact mass: 283.1339066
SMILES: CCC1=C(N(C(C)COC)C(=O)CCl)C(C)=CC=C1
InChI: InChI=1S/C15H22ClNO2/c1-5-13-8-6-7-11(2)15(13)17(14(18)9-16)12(3)10-19-4/h6-8,12H,5,9-10H2,1-4H3
Instrument: Q Exactive Plus
Instrument type: LC-ESI-QFT
Ms type: MS2
Ion mode: POSITIVE
Ionization: ESI
Fragmentation mode: HCD
Collision energy: 150 % (nominal)
Resolution: 15000
Column name: XBridge C18 3.5um, 2.1x50mm, Waters
Retention time: 10.500 min
Base peak: 284.1412
Precursor m/z: 284.1412
Precursor type: [M+H]+
Precursor intensity: 759501235.91
m/z	relative intensity	assigned
50.0151	32	C4H2+
51.0229	139	C4H3+
53.0386	117	C4H5+
63.0229	35	C5H3+
65.0386	525	C5H5+
66.0465	41	C5H6+
77.0385	70	C6H5+
78.0463	139	C6H6+
79.0542	87	C6H7+
89.0385	66	C7H5+
90.0464	39	C7H6+
91.0542	999	C7H7+
93.0573	284	C6H7N+
95.0491	344	C6H7O+
102.0464	36	C8H6+
103.0542	172	C8H7+
104.0621	49	C8H8+
105.07	76	C8H9+
106.0651	156	C7H8N+
115.0542	362	C9H7+
116.0496	16	C8H6N+
116.062	39	C9H8+
117.0573	313	C8H7N+
118.065	209	C8H8N+
119.0728	75	C8H9N+
120.0806	14	C8H10N+
128.0493	21	C9H6N+
128.0618	23	C10H8+
130.0651	555	C9H8N+
131.0729	103	C9H9N+
132.0806	100	C9H10N+
142.0651	32	C10H8N+
143.0729	76	C10H9N+
144.0808	206	C10H10N+
145.0886	16	C10H11N+
146.0598	22	C9H8NO+
156.081	11	C11H10N+
