Mass spectrum: Carfentrazone-ethyl; LC-ESI-QFT; MS2; CE: 45%; R=15000; [M+H]+
Name: Carfentrazone-ethyl
Name: ethyl 2-chloro-3-[2-chloro-5-[4-(difluoromethyl)-3-methyl-5-oxo-1,2,4-triazol-1-yl]-4-fluorophenyl]propanoate
Formula: C15H14Cl2F3N3O3
Exact mass: 411.0364313
SMILES: CCOC(=O)C(CC1=CC(=C(C=C1Cl)F)N2C(=O)N(C(=N2)C)C(F)F)Cl
InChI: InChI=1S/C15H14Cl2F3N3O3/c1-3-26-13(24)10(17)4-8-5-12(11(18)6-9(8)16)23-15(25)22(14(19)20)7(2)21-23/h5-6,10,14H,3-4H2,1-2H3
Instrument: Exploris 240 Thermo Scientific
Instrument type: LC-ESI-QFT
Ms type: MS2
Ion mode: POSITIVE
Ionization: ESI
Fragmentation mode: HCD
Collision energy: 45 % (nominal)
Resolution: 15000
Column name: XBridge C18 3.5um, 2.1x50mm, Waters
Retention time: 10.983 min
Base peak: 412.0433
Precursor m/z: 412.0437
Precursor type: [M+H]+
m/z	relative intensity	assigned
74.0036	25	C2HFNO+
87.0352	12	C3H4FN2+
92.0307	13	C3H4F2N+
203.9777	20	C8H5Cl2FN+
204.9612	59	C6ClF2N2O2+
232.98	13	C12H3ClFO2+
242.0052	40	C10H5ClF2N2O+
258.9595	44	C13HClFO3+
276.9739	527	C13H2ClF2NO2+
302.03	360	C14H12Cl2F2N+
338.0066	102	C15H6ClF3N2O2+
345.9954	999	C13H8Cl2F2N3O2+
366.0014	68	C13H9Cl2F3N3O2+
