Mass spectrum: Hydroxytorasemide; LC-ESI-QFT; MS2; CE: 60%; R=17500; [M+H]+
Name: Hydroxytorasemide
Name: Torasemide metabolite M1
Name: 1-[4-[3-(hydroxymethyl)anilino]pyridin-3-yl]sulfonyl-3-propan-2-ylurea
Formula: C16H20N4O4S
Exact mass: 364.1205261
SMILES: CC(C)NC(=O)NS(=O)(=O)C1=C(C=CN=C1)NC2=CC=CC(=C2)CO
InChI: InChI=1S/C16H20N4O4S/c1-11(2)18-16(22)20-25(23,24)15-9-17-7-6-14(15)19-13-5-3-4-12(8-13)10-21/h3-9,11,21H,10H2,1-2H3,(H,17,19)(H2,18,20,22)
Instrument: Exploris 240 Orbitrap Thermo Scientific
Instrument type: LC-ESI-QFT
Ms type: MS2
Ion mode: POSITIVE
Ionization: ESI
Fragmentation mode: HCD
Collision energy: 60 % (nominal)
Resolution: 17500
Column name: XBridge C18 3.5um, 2.1x50mm, Waters
Retention time: 4.126 min
Base peak: 365.1276
Precursor m/z: 365.1278
Precursor type: [M+H]+
m/z	relative intensity	assigned
67.0417	7	C4H5N+
125.0168	156	C5H5N2S+
126.0006	16	C5H4NOS+
127.0328	6	C5H7N2S+
137.0173	14	C6H5N2S+
138.0555	19	C7H8NO2+
142.0647	7	C10H8N+
152.004	85	C6H4N2OS+
153.0119	21	C6H5N2OS+
154.0653	18	C11H8N+
168.0683	105	C11H8N2+
169.0761	999	C11H9N2+
181.0761	404	C12H9N2+
182.0837	74	C12H10N2+
184.0625	17	C11H8N2O+
185.071	14	C11H9N2O+
187.0327	21	C10H7N2S+
188.0399	15	C10H8N2S+
189.0481	105	C10H9N2S+
197.0713	91	C12H9N2O+
199.0868	95	C12H11N2O+
201.0479	23	C11H9N2S+
205.0426	29	C10H9N2OS+
214.0739	71	C12H10N2O2+
215.0815	64	C12H11N2O2+
216.0353	49	C11H8N2OS+
217.0432	104	C11H9N2OS+
228.0348	33	C12H8N2OS+
233.0381	219	C11H9N2O2S+
245.0382	170	C12H9N2O2S+
263.0491	47	C12H11N2O3S+
280.0751	580	C12H14N3O3S+
306.0546	57	C13H12N3O4S+
