Mass spectrum: Nimesulide; LC-ESI-QFT; MS2; CE: 60%; R=17500; [M+H]+
Name: Nimesulide
Name: N-(4-nitro-2-phenoxyphenyl)methanesulfonamide
Formula: C13H12N2O5S
Exact mass: 308.046692484
SMILES: CS(=O)(=O)NC1=C(C=C(C=C1)[N+](=O)[O-])OC2=CC=CC=C2
InChI: InChI=1S/C13H12N2O5S/c1-21(18,19)14-12-8-7-10(15(16)17)9-13(12)20-11-5-3-2-4-6-11/h2-9,14H,1H3
Instrument: Exploris 240 Orbitrap Thermo Scientific
Instrument type: LC-ESI-QFT
Ms type: MS2
Ion mode: POSITIVE
Ionization: ESI
Fragmentation mode: HCD
Collision energy: 60 % (nominal)
Resolution: 17500
Column name: XBridge C18 3.5um, 2.1x50mm, Waters
Retention time: 7.676 min
Base peak: 132.9581
Precursor m/z: 309.054
Precursor type: [M+H]+
m/z	relative intensity	assigned
65.0386	35	C5H5+
129.0584	26	C3H13O3S+
129.0701	70	C10H9+
154.065	531	C11H8N+
155.0733	47	C11H9N+
156.0801	104	C11H10N+
166.0655	35	C12H8N+
182.0602	98	C12H8NO+
183.0677	999	C12H9NO+
184.0753	149	C12H10NO+
200.071	78	C12H10NO2+
213.066	65	C12H9N2O2+
214.0739	69	C12H10N2O2+
215.0583	76	C12H9NO3+
292.0525	64	C13H12N2O4S+
