Mass spectrum: Fenpropathrin; LC-ESI-QFT; MS2; CE: 45%; R=15000; [M+H]+
Name: Fenpropathrin
Name: [cyano-(3-phenoxyphenyl)methyl] 2,2,3,3-tetramethylcyclopropane-1-carboxylate
Formula: C22H23NO3
Exact mass: 349.1677936
SMILES: CC1(C(C1(C)C)C(=O)OC(C#N)C2=CC(=CC=C2)OC3=CC=CC=C3)C
InChI: InChI=1S/C22H23NO3/c1-21(2)19(22(21,3)4)20(24)26-18(14-23)15-9-8-12-17(13-15)25-16-10-6-5-7-11-16/h5-13,18-19H,1-4H3
Instrument: Exploris 240 Thermo Scientific
Instrument type: LC-ESI-QFT
Ms type: MS2
Ion mode: POSITIVE
Ionization: ESI
Fragmentation mode: HCD
Collision energy: 45 % (nominal)
Resolution: 15000
Column name: XBridge C18 3.5um, 2.1x50mm, Waters
Retention time: 14.828 min
Base peak: 372.1566
Precursor m/z: 350.1751
Precursor type: [M+H]+
m/z	relative intensity	assigned
55.0542	53	C4H7+
57.0697	24	C4H9+
69.0698	18	C5H9+
83.0854	14	C6H11+
97.101	108	C7H13+
125.0959	999	C8H13O+
