Mass spectrum: Indoxacarb; LC-ESI-QFT; MS2; CE: 45%; R=15000; [M+H]+
Name: Indoxacarb
Name: methyl (4aS)-7-chloro-2-[methoxycarbonyl-[4-(trifluoromethoxy)phenyl]carbamoyl]-3,5-dihydroindeno[1,2-e][1,3,4]oxadiazine-4a-carboxylate
Formula: C22H17ClF3N3O7
Exact mass: 527.0707122
SMILES: COC(=O)N(C(=O)N1CO[C@]2(CC3=C(C=CC(Cl)=C3)C2=N1)C(=O)OC)C1=CC=C(OC(F)(F)F)C=C1
InChI: InChI=1S/C22H17ClF3N3O7/c1-33-18(30)21-10-12-9-13(23)3-8-16(12)17(21)27-28(11-35-21)19(31)29(20(32)34-2)14-4-6-15(7-5-14)36-22(24,25)26/h3-9H,10-11H2,1-2H3/t21-/m0/s1
Instrument: Q Exactive Plus
Instrument type: LC-ESI-QFT
Ms type: MS2
Ion mode: POSITIVE
Ionization: ESI
Fragmentation mode: HCD
Collision energy: 45 % (nominal)
Resolution: 15000
Column name: XBridge C18 3.5um, 2.1x50mm, Waters
Retention time: 12.982 min
Base peak: 528.0783
Precursor m/z: 528.078
Precursor type: [M+H]+
Precursor intensity: 66716548.9
m/z	relative intensity	assigned
56.0131	433	C2H2NO+
75.0441	26	C3H7O2+
81.0147	16	C2H3F2O+
104.0495	78	C7H6N+
116.062	10	C9H8+
127.0417	11	C9H5N+
128.0622	22	C10H8+
132.0445	58	C8H6NO+
134.0238	17	C7H4NO2+
137.0153	20	C8H6Cl+
142.0655	11	C10H8N+
150.0105	224	C8H5ClN+
150.055	25	C8H8NO2+
155.0604	41	C10H7N2+
160.0503	36	C8H6N3O+
162.0104	197	C9H5ClN+
164.0263	29	C9H7ClN+
165.0339	13	C9H8ClN+
167.0258	48	C9H8ClO+
168.021	359	C8H7ClNO+
177.0339	30	C10H8ClN+
179.0257	57	C10H8ClO+
180.0209	50	C9H7ClNO+
189.0214	109	C10H6ClN2+
190.0054	274	C10H5ClNO+
195.0209	94	C10H8ClO2+
203.0188	999	C8H4F3NO2+
204.0085	36	C10H5ClN2O+
208.0158	39	C10H7ClNO2+
217.0163	79	C11H6ClN2O+
218.0423	110	C9H7F3NO2+
219.0319	69	C11H8ClN2O+
