Mass spectrum: Dorzolamide; LC-ESI-QFT; MS2; CE: 70%; R=15000; [M+H]+
Name: Dorzolamide
Name: (4S,6S)-4-(ethylamino)-6-methyl-7,7-bis(oxidanylidene)-5,6-dihydro-4H-thieno[2,3-b]thiopyran-2-sulfonamide
Name: 4-(ethylamino)-6-methyl-7,7-dioxo-5,6-dihydro-4H-thieno[2,3-b]thiopyran-2-sulfonamide
Formula: C10H16N2O4S3
Exact mass: 324.02722
SMILES: CCNC1CC(S(=O)(=O)C2=C1C=C(S2)S(=O)(=O)N)C
InChI: InChI=1S/C10H16N2O4S3/c1-3-12-8-4-6(2)18(13,14)10-7(8)5-9(17-10)19(11,15)16/h5-6,8,12H,3-4H2,1-2H3,(H2,11,15,16)
Instrument: Exploris 240 Thermo Scientific
Instrument type: LC-ESI-QFT
Ms type: MS2
Ion mode: POSITIVE
Ionization: ESI
Fragmentation mode: HCD
Collision energy: 70 % (nominal)
Resolution: 15000
Column name: XBridge C18 3.5um, 2.1x50mm, Waters
Retention time: 1.509 min
Base peak: 325.0341
Precursor m/z: 325.0345
Precursor type: [M+H]+
m/z	relative intensity	assigned
51.0228	62	C4H3+
53.0386	27	C4H5+
63.0231	37	C5H3+
63.9853	23	H2NOS+
65.0386	561	C5H5+
68.9794	147	C3HS+
70.995	81	C3H3S+
77.0385	48	C6H5+
84.003	64	C4H4S+
89.0384	60	C7H5+
90.0465	71	C7H6+
91.0543	999	C7H7+
94.995	215	C5H3S+
95.0491	73	C6H7O+
105.0449	30	C6H5N2+
108.003	24	C6H4S+
109.0106	21	C6H5S+
121.0107	66	C7H5S+
126.9673	82	C5H3S2+
134.0185	256	C8H6S+
135.0262	93	C8H7S+
138.9672	52	C6H3S2+
202.0778	361	C8H14N2O2S+
