Mass spectrum: Losartan-carboxylic acid; LC-ESI-QFT; MS2; CE: 75%; R=17500; [M+H]+
Name: Losartan-carboxylic acid
Name: Losartan carboxylic acid
Name: 2-butyl-5-chloro-3-[[4-[2-(2H-tetrazol-5-yl)phenyl]phenyl]methyl]imidazole-4-carboxylic acid
Formula: C22H21ClN6O2
Exact mass: 436.1414516
SMILES: CCCCC1=NC(=C(N1CC2=CC=C(C=C2)C3=CC=CC=C3C4=NNN=N4)C(=O)O)Cl
InChI: InChI=1S/C22H21ClN6O2/c1-2-3-8-18-24-20(23)19(22(30)31)29(18)13-14-9-11-15(12-10-14)16-6-4-5-7-17(16)21-25-27-28-26-21/h4-7,9-12H,2-3,8,13H2,1H3,(H,30,31)(H,25,26,27,28)
Instrument: Exploris 240 Orbitrap Thermo Scientific
Instrument type: LC-ESI-QFT
Ms type: MS2
Ion mode: POSITIVE
Ionization: ESI
Fragmentation mode: HCD
Collision energy: 75 % (nominal)
Resolution: 17500
Column name: XBridge C18 3.5um, 2.1x50mm, Waters
Retention time: 8.222 min
Base peak: 437.1482
Precursor m/z: 437.1487
Precursor type: [M+H]+
m/z	relative intensity	assigned
67.0416	15	C4H5N+
77.0386	93	C6H5+
80.0496	47	C5H6N+
95.0492	13	C6H7O+
105.0446	54	C6H5N2+
115.0543	43	C9H7+
129.0447	28	C8H5N2+
129.0704	18	C10H9+
140.0493	143	C10H6N+
151.0543	75	C12H7+
152.062	344	C12H8+
153.0698	759	C12H9+
154.0654	41	C11H8N+
155.0602	19	C10H7N2+
157.0529	23	C7H10ClN2+
163.0544	177	C13H7+
164.0621	43	C13H8+
166.0657	43	C12H8N+
167.073	71	C12H9N+
168.0684	39	C11H8N2+
169.0651	32	C12H9O+
177.0547	13	C7H12ClNO2+
178.0785	682	C14H10+
180.0807	931	C13H10N+
185.0479	38	C8H10ClN2O+
189.0578	26	C14H7N+
190.0651	999	C14H8N+
191.0731	260	C14H9N+
192.0681	501	C13H8N2+
203.0584	52	C8H12ClN2O2+
205.076	542	C14H9N2+
206.0837	460	C14H10N2+
207.0914	154	C14H11N2+
