Mass spectrum: Pyrimethamine; LC-ESI-QFT; MS2; CE: 150%; R=15000; [M+H]+
Name: Pyrimethamine
Name: 5-(4-chlorophenyl)-6-ethylpyrimidine-2,4-diamine
Formula: C12H13ClN4
Exact mass: 248.0828741
SMILES: CCC1=NC(N)=NC(N)=C1C1=CC=C(Cl)C=C1
InChI: InChI=1S/C12H13ClN4/c1-2-9-10(11(14)17-12(15)16-9)7-3-5-8(13)6-4-7/h3-6H,2H2,1H3,(H4,14,15,16,17)
Instrument: Q Exactive Plus
Instrument type: LC-ESI-QFT
Ms type: MS2
Ion mode: POSITIVE
Ionization: ESI
Fragmentation mode: HCD
Collision energy: 150 % (nominal)
Resolution: 15000
Column name: XBridge C18 3.5um, 2.1x50mm, Waters
Retention time: 5.158 min
Base peak: 249.0903
Precursor m/z: 249.0902
Precursor type: [M+H]+
Precursor intensity: 1238556926.84
m/z	relative intensity	assigned
50.0152	40	C4H2+
51.0229	128	C4H3+
62.015	18	C5H2+
63.0228	48	C5H3+
65.0386	21	C5H5+
66.0464	19	C5H6+
67.0291	14	C3H3N2+
68.0244	31	C2H2N3+
72.9839	18	C3H2Cl+
74.015	69	C6H2+
75.0229	435	C6H3+
76.0307	30	C6H4+
77.0386	51	C6H5+
78.0465	121	C6H6+
89.0386	223	C7H5+
90.0466	118	C7H6+
91.0541	23	C7H7+
95.0492	260	C3H10ClN+
98.0152	25	C8H2+
98.9997	43	C5H4Cl+
99.0104	19	C7HN+
99.023	90	C8H3+
100.0182	56	C7H2N+
101.0386	24	C8H5+
102.0464	373	C8H6+
103.0417	17	C7H5N+
103.0544	90	C8H7+
105.0448	64	C6H5N2+
110.9996	42	C6H4Cl+
113.0385	87	C9H5+
114.0339	92	C8H4N+
114.0464	19	C9H6+
115.0543	269	C9H7+
116.0497	57	C8H6N+
117.0572	88	C8H7N+
119.0494	52	C5H10ClN+
122.9999	117	C7H4Cl+
125.0155	51	C7H6Cl+
125.0387	18	C10H5+
126.0342	80	C9H4N+
126.0464	205	C10H6+
127.0417	373	C9H5N+
127.0543	214	C10H7+
128.0498	113	C9H6N+
128.0621	999	C10H8+
129.0572	118	C9H7N+
129.07	12	C10H9+
131.0605	14	C8H7N2+
139.0056	91	C6H4ClN2+
140.0495	195	C10H6N+
144.0446	55	C6H9ClN2+
145.065	215	C7H12ClN+
146.06	38	C6H11ClN2+
149.0154	42	C9H6Cl+
153.0572	47	C11H7N+
154.0526	166	C10H6N2+
154.0653	171	C11H8N+
155.0604	846	C10H7N2+
156.0682	225	C10H8N2+
161.0027	275	C9H4ClN+
162.0104	99	C9H5ClN+
164.0262	76	C9H7ClN+
170.0602	51	C8H11ClN2+
174.0105	184	C10H5ClN+
180.0555	44	C11H6N3+
181.0636	74	C11H7N3+
189.0212	133	C10H6ClN2+
190.0417	15	C11H9ClN+
