Mass spectrum: tert-Butylacrylamide; LC-ESI-QFT; MS2; CE: 15%; R=15000; [M+H]+
Name: tert-Butylacrylamide
Name: N-Tert-butylacrylamide
Name: N-tert-butylprop-2-enamide
Formula: C7H13NO
Exact mass: 127.099714
SMILES: CC(C)(C)NC(=O)C=C
InChI: InChI=1S/C7H13NO/c1-5-6(9)8-7(2,3)4/h5H,1H2,2-4H3,(H,8,9)
Instrument: Exploris 240 Thermo Scientific
Instrument type: LC-ESI-QFT
Ms type: MS2
Ion mode: POSITIVE
Ionization: ESI
Fragmentation mode: HCD
Collision energy: 15 % (nominal)
Resolution: 15000
Column name: XBridge C18 3.5um, 2.1x50mm, Waters
Retention time: 3.893 min
Base peak: 128.1068
Precursor m/z: 128.107
Precursor type: [M+H]+
m/z	relative intensity	assigned
57.0698	16	C4H9+
72.0443	999	C3H6NO+
128.1068	730	C7H14NO+
