Mass spectrum: 3-Desmethyltrimethoprim; LC-ESI-QFT; MS2; CE: 120%; R=17500; [M+H]+
Name: 3-Desmethyltrimethoprim
Name: 5-[(2,4-diaminopyrimidin-5-yl)methyl]-2,3-dimethoxyphenol
Formula: C13H16N4O3
Exact mass: 276.1222404
SMILES: COC1=CC(=CC(=C1OC)O)CC2=CN=C(N=C2N)N
InChI: InChI=1S/C13H16N4O3/c1-19-10-5-7(4-9(18)11(10)20-2)3-8-6-16-13(15)17-12(8)14/h4-6,18H,3H2,1-2H3,(H4,14,15,16,17)
Instrument: Exploris 240 Orbitrap Thermo Scientific
Instrument type: LC-ESI-QFT
Ms type: MS2
Ion mode: POSITIVE
Ionization: ESI
Fragmentation mode: HCD
Collision energy: 120 % (nominal)
Resolution: 17500
Column name: XBridge C18 3.5um, 2.1x50mm, Waters
Retention time: 2.604 min
Base peak: 277.1292
Precursor m/z: 277.1295
Precursor type: [M+H]+
m/z	relative intensity	assigned
54.0338	196	C3H4N+
60.0556	23	CH6N3+
65.0387	25	C5H5+
68.037	109	C3H4N2+
77.0387	36	C6H5+
78.0464	16	C6H6+
79.0292	33	C4H3N2+
81.0447	999	C4H5N2+
83.0479	45	C3H5N3+
91.0543	20	C7H7+
92.0495	27	C6H6N+
94.0525	23	C5H6N2+
94.0652	46	C6H8N+
95.0492	21	C6H7O+
96.0558	27	C4H6N3+
103.0543	27	C8H7+
104.0497	80	C7H6N+
106.0399	77	C5H4N3+
107.0607	16	C6H7N2+
109.0512	43	C4H5N4+
110.0588	114	C4H6N4+
116.0496	56	C8H6N+
118.0654	26	C8H8N+
119.0607	52	C7H7N2+
121.0759	42	C7H9N2+
123.0441	50	C7H7O2+
123.0666	563	C5H7N4+
124.0739	61	C5H8N4+
128.0494	92	C9H6N+
129.0451	34	C8H5N2+
131.0597	62	C8H7N2+
132.0447	39	C8H6NO+
135.0666	26	C6H7N4+
145.0759	75	C9H9N2+
146.0717	92	C8H8N3+
147.0667	88	C7H7N4+
148.0742	257	C7H8N4+
149.0825	48	C7H9N4+
151.0394	31	C8H7O3+
161.0827	54	C8H9N4+
170.0717	78	C10H8N3+
173.0829	36	C9H9N4+
185.0822	17	C10H9N4+
187.098	114	C10H11N4+
219.0881	35	C10H11N4O2+
231.0879	14	C11H11N4O2+
