Mass spectrum: Entacapone; LC-ESI-QFT; MS2; CE: 75%; R=15000; [M+H]+
Name: Entacapone
Name: 2-cyano-3-(3,4-dihydroxy-5-nitrophenyl)-N,N-diethylprop-2-enamide
Name: (E)-2-cyano-N,N-diethyl-3-[3-nitro-4,5-bis(oxidanyl)phenyl]prop-2-enamide
Formula: C14H15N3O5
Exact mass: 305.1011706
SMILES: CCN(CC)C(=O)C(=CC1=CC(=C(C(=C1)O)O)[N+](=O)[O-])C#N
InChI: InChI=1S/C14H15N3O5/c1-3-16(4-2)14(20)10(8-15)5-9-6-11(17(21)22)13(19)12(18)7-9/h5-7,18-19H,3-4H2,1-2H3
Instrument: Q Exactive
Instrument type: LC-ESI-QFT
Ms type: MS2
Ion mode: POSITIVE
Ionization: ESI
Fragmentation mode: HCD
Collision energy: 75 % (nominal)
Resolution: 15000
Column name: XBridge C18 3.5um, 2.1x50mm, Waters
Retention time: 6.195 min
Base peak: 306.1085
Precursor m/z: 306.1084
Precursor type: [M+H]+
Precursor intensity: 547436965.48
m/z	relative intensity	assigned
52.0181	64	C3H2N+
64.0181	101	C4H2N+
68.0131	282	C3H2NO+
71.0604	208	C3H7N2+
72.0444	428	C3H6NO+
72.0808	160	C4H10N+
74.0964	136	C4H12N+
76.0182	999	C5H2N+
76.0306	86	C6H4+
77.0259	128	C5H3N+
78.034	113	C5H4N+
80.0131	300	C4H2NO+
87.0102	80	C6HN+
88.0182	850	C6H2N+
90.0338	104	C6H4N+
91.0417	232	C6H5N+
99.0917	92	C5H11N2+
101.0261	785	C7H3N+
103.0292	675	C6H3N2+
103.0414	219	C7H5N+
104.0131	649	C6H2NO+
104.0493	55	C7H6N+
105.021	52	C6H3NO+
105.0447	75	C6H5N2+
106.0287	84	C6H4NO+
114.0214	180	C7H2N2+
115.0293	178	C7H3N2+
116.013	123	C7H2NO+
116.0367	153	C7H4N2+
118.0285	175	C7H4NO+
119.0365	286	C7H5NO+
121.0396	90	C6H5N2O+
122.0364	88	C7H6O2+
129.0209	269	C8H3NO+
130.0289	61	C8H4NO+
130.0397	65	C7H4N3+
131.024	287	C7H3N2O+
132.0318	87	C7H4N2O+
133.0397	72	C7H5N2O+
142.0161	377	C8H2N2O+
144.0558	27	C8H6N3+
147.0319	225	C8H5NO2+
159.0188	174	C8H3N2O2+
159.0315	586	C9H5NO2+
159.043	77	C8H5N3O+
160.0269	181	C8H4N2O2+
168.0296	45	C7H6NO4+
170.011	601	C9H2N2O2+
171.0193	94	C9H3N2O2+
172.0498	37	C9H6N3O+
