Mass spectrum: Acyclovir; LC-ESI-QFT; MS2; CE: 90%; R=17500; [M-H]-
Name: Acyclovir
Name: 2-amino-9-(2-hydroxyethoxymethyl)-3H-purin-6-one
Formula: C8H11N5O3
Exact mass: 225.0861892
SMILES: C1=NC2=C(N1COCCO)N=C(NC2=O)N
InChI: InChI=1S/C8H11N5O3/c9-8-11-6-5(7(15)12-8)10-3-13(6)4-16-2-1-14/h3,14H,1-2,4H2,(H3,9,11,12,15)
Instrument: Exploris 240 Orbitrap Thermo Scientific
Instrument type: LC-ESI-QFT
Ms type: MS2
Ion mode: NEGATIVE
Ionization: ESI
Fragmentation mode: HCD
Collision energy: 90 % (nominal)
Resolution: 17500
Column name: XBridge C18 3.5um, 2.1x50mm, Waters
Retention time: 1.167 min
Base peak: 224.0788
Precursor m/z: 224.0789
Precursor type: [M-H]-
m/z	relative intensity	assigned
50.0038	24	C3N-
59.014	21	C2H3O2-
65.0145	380	C3HN2-
65.9984	44	C3NO-
66.0098	149	C2N3-
67.0302	107	C3H3N2-
78.0099	17	C3N3-
79.0178	20	C3HN3-
82.0411	25	C3H4N3-
90.0099	21	C4N3-
92.0254	999	C4H2N3-
106.0285	466	C4H2N4-
107.0124	13	C4HN3O-
107.0361	58	C4H3N4-
108.0204	190	C4H2N3O-
119.0363	349	C5H3N4-
120.0205	118	C5H2N3O-
125.0469	38	C4H5N4O-
126.0313	19	C4H4N3O2-
133.0156	291	C5HN4O-
144.0318	11	C6H2N5-
149.0342	67	C5H3N5O-
150.0418	52	C5H4N5O-
162.0422	17	C6H4N5O-
