Mass spectrum: 3-Hydroxymethylmefenamic acid; LC-ESI-QFT; MS2; CE: 75%; R=17500; [M+H]+
Name: 3-Hydroxymethylmefenamic acid
Name: 3-Hydroxymethyl Mefenamic Acid
Name: 2-[3-(hydroxymethyl)-2-methylanilino]benzoic acid
Formula: C15H15NO3
Exact mass: 257.1051933
SMILES: CC1=C(C=CC=C1NC2=CC=CC=C2C(=O)O)CO
InChI: InChI=1S/C15H15NO3/c1-10-11(9-17)5-4-8-13(10)16-14-7-3-2-6-12(14)15(18)19/h2-8,16-17H,9H2,1H3,(H,18,19)
Instrument: Exploris 240 Orbitrap Thermo Scientific
Instrument type: LC-ESI-QFT
Ms type: MS2
Ion mode: POSITIVE
Ionization: ESI
Fragmentation mode: HCD
Collision energy: 75 % (nominal)
Resolution: 17500
Column name: XBridge C18 3.5um, 2.1x50mm, Waters
Retention time: 8.513 min
Base peak: 258.1122
Precursor m/z: 258.1125
Precursor type: [M+H]+
m/z	relative intensity	assigned
77.0385	10	C6H5+
91.0541	39	C7H7+
105.0337	30	C7H5O+
152.062	30	C12H8+
166.0648	14	C12H8N+
168.0811	31	C12H10N+
179.0729	630	C13H9N+
180.0807	208	C13H10N+
182.0603	21	C12H8NO+
183.0676	17	C12H9NO+
192.0801	50	C14H10N+
193.0887	271	C14H11N+
194.0964	738	C14H12N+
195.068	520	C13H9NO+
196.0751	48	C13H10NO+
204.0806	166	C15H10N+
206.0598	16	C14H8NO+
207.068	173	C14H9NO+
208.076	34	C14H10NO+
209.0832	90	C14H11NO+
210.0913	999	C14H12NO+
220.0758	53	C15H10NO+
221.0839	41	C15H11NO+
222.0912	506	C15H12NO+
