Mass spectrum: Isotretinoine; LC-ESI-QFT; MS2; CE: 80%; R=15000; [M+H]+
Name: Isotretinoine
Name: (2Z,4E,6E,8E)-3,7-dimethyl-9-(2,6,6-trimethylcyclohexen-1-yl)nona-2,4,6,8-tetraenoic acid
Name: 3,7-dimethyl-9-(2,6,6-trimethylcyclohexen-1-yl)nona-2,4,6,8-tetraenoic acid
Formula: C20H28O2
Exact mass: 300.2089301
SMILES: CC1=C(C(CCC1)(C)C)C=CC(=CC=CC(=CC(=O)O)C)C
InChI: InChI=1S/C20H28O2/c1-15(8-6-9-16(2)14-19(21)22)11-12-18-17(3)10-7-13-20(18,4)5/h6,8-9,11-12,14H,7,10,13H2,1-5H3,(H,21,22)
Instrument: Exploris 240 Thermo Scientific
Instrument type: LC-ESI-QFT
Ms type: MS2
Ion mode: POSITIVE
Ionization: ESI
Fragmentation mode: HCD
Collision energy: 80 % (nominal)
Resolution: 15000
Column name: XBridge C18 3.5um, 2.1x50mm, Waters
Retention time: 16.283 min
Base peak: 301.2158
Precursor m/z: 301.2162
Precursor type: [M+H]+
m/z	relative intensity	assigned
51.0229	211	C4H3+
53.0386	175	C4H5+
55.0543	88	C4H7+
65.0386	472	C5H5+
67.0543	66	C5H7+
77.0384	201	C6H5+
78.0466	83	C6H6+
79.0541	253	C6H7+
91.0542	684	C7H7+
95.0491	294	C6H7O+
103.0546	113	C8H7+
115.0543	748	C9H7+
116.0625	54	C9H8+
127.0545	36	C10H7+
128.0621	515	C10H8+
129.07	118	C10H9+
141.0698	158	C11H9+
145.0646	33	C10H9O+
202.0778	999	C16H10+
