Mass spectrum: Simazine; LC-ESI-QFT; MS2; CE: 60%; R=15000; [M+H]+
Name: Simazine
Name: 6-chloro-2-N,4-N-diethyl-1,3,5-triazine-2,4-diamine
Formula: C7H12ClN5
Exact mass: 201.0781231
SMILES: CCNC1=NC(NCC)=NC(Cl)=N1
InChI: InChI=1S/C7H12ClN5/c1-3-9-6-11-5(8)12-7(13-6)10-4-2/h3-4H2,1-2H3,(H2,9,10,11,12,13)
Instrument: Q Exactive Plus
Instrument type: LC-ESI-QFT
Ms type: MS2
Ion mode: POSITIVE
Ionization: ESI
Fragmentation mode: HCD
Collision energy: 60 % (nominal)
Resolution: 15000
Column name: XBridge C18 3.5um, 2.1x50mm, Waters
Retention time: 6.038 min
Base peak: 202.0853
Precursor m/z: 202.0854
Precursor type: [M+H]+
Precursor intensity: 1025756973.84
m/z	relative intensity	assigned
61.9791	42	CHClN+
68.0243	464	C2H2N3+
71.0603	600	C3H7N2+
79.0056	89	CH4ClN2+
90.0105	46	C3H5ClN+
96.0555	937	C4H6N3+
104.0009	940	C2H3ClN3+
124.0869	811	C6H10N3+
132.0322	999	C4H7ClN3+
138.0771	39	C5H8N5+
146.0226	36	C3H5ClN5+
166.1086	119	C7H12N5+
174.0539	160	C5H9ClN5+
202.0852	322	C7H13ClN5+
