Mass spectrum: Siponimod; LC-ESI-QFT; MS2; CE: 80%; R=15000; [M+H]+
Name: Siponimod
Name: 1-[[4-[(E)-N-[[4-cyclohexyl-3-(trifluoromethyl)phenyl]methoxy]-C-methylcarbonimidoyl]-2-ethylphenyl]methyl]azetidine-3-carboxylic acid
Name: 1-[[4-[N-[[4-cyclohexyl-3-(trifluoromethyl)phenyl]methoxy]-C-methylcarbonimidoyl]-2-ethylphenyl]methyl]azetidine-3-carboxylic acid
Formula: C29H35F3N2O3
Exact mass: 516.2599776
SMILES: CCC1=C(C=CC(=C1)C(=NOCC2=CC(=C(C=C2)C3CCCCC3)C(F)(F)F)C)CN4CC(C4)C(=O)O
InChI: InChI=1S/C29H35F3N2O3/c1-3-21-14-23(10-11-24(21)15-34-16-25(17-34)28(35)36)19(2)33-37-18-20-9-12-26(22-7-5-4-6-8-22)27(13-20)29(30,31)32/h9-14,22,25H,3-8,15-18H2,1-2H3,(H,35,36)
Instrument: Exploris 240 Thermo Scientific
Instrument type: LC-ESI-QFT
Ms type: MS2
Ion mode: POSITIVE
Ionization: ESI
Fragmentation mode: HCD
Collision energy: 80 % (nominal)
Resolution: 15000
Column name: XBridge C18 3.5um, 2.1x50mm, Waters
Retention time: 13.993 min
Base peak: 517.267
Precursor m/z: 517.2673
Precursor type: [M+H]+
m/z	relative intensity	assigned
57.0135	191	C3H2F+
59.0291	87	C3H4F+
63.0229	247	C5H3+
65.0386	170	C5H5+
75.0229	77	C6H3+
77.0022	56	C5HO+
77.0387	69	C6H5+
78.0464	26	C6H6+
83.0291	999	C5H4F+
89.0385	450	C7H5+
90.0463	79	C7H6+
91.0541	111	C7H7+
93.0134	68	C6H2F+
95.049	79	C6H7O+
98.0151	182	C8H2+
99.0229	368	C8H3+
103.0543	20	C8H7+
105.0447	33	C6H5N2+
109.0448	984	C7H6F+
115.0542	149	C9H7+
119.0291	43	C8H4F+
133.045	36	C9H6F+
141.0258	29	C6H3F2N2+
147.0354	55	C8H4FN2+
202.0777	334	C16H10+
203.083	79	C8H12FN2O3+
