Mass spectrum: Acetyl-Tributyl-Citrate; LC-ESI-QFT; MS2; CE: 60%; R=15000; [M+H]+
Name: Acetyl-Tributyl-Citrate
Name: tributyl 2-acetyloxypropane-1,2,3-tricarboxylate
Formula: C20H34O8
Exact mass: 402.225368
SMILES: CCCCOC(=O)CC(CC(=O)OCCCC)(C(=O)OCCCC)OC(=O)C
InChI: InChI=1S/C20H34O8/c1-5-8-11-25-17(22)14-20(28-16(4)21,19(24)27-13-10-7-3)15-18(23)26-12-9-6-2/h5-15H2,1-4H3
Instrument: Exploris 240 Thermo Scientific
Instrument type: LC-ESI-QFT
Ms type: MS2
Ion mode: POSITIVE
Ionization: ESI
Fragmentation mode: HCD
Collision energy: 60 % (nominal)
Resolution: 15000
Column name: XBridge C18 3.5um, 2.1x50mm, Waters
Retention time: 13.909 min
Base peak: 403.2323
Precursor m/z: 403.2326
Precursor type: [M+H]+
m/z	relative intensity	assigned
55.0178	33	C3H3O+
57.0699	31	C4H9+
59.0491	15	C3H7O+
68.9971	999	C3HO2+
87.0076	30	C3H3O3+
111.0078	25	C5H3O3+
202.0776	136	C16H10+
