Mass spectrum: Zolpidem carboxylic acid; LC-ESI-QFT; MS2; CE: 90%; R=17500; [M+H]+
Name: Zolpidem carboxylic acid
Name: 4-[3-[2-(dimethylamino)-2-oxoethyl]-6-methylimidazo[1,2-a]pyridin-2-yl]benzoic acid
Formula: C19H19N3O3
Exact mass: 337.1426415
SMILES: CC1=CN2C(=NC(=C2CC(=O)N(C)C)C3=CC=C(C=C3)C(=O)O)C=C1
InChI: InChI=1S/C19H19N3O3/c1-12-4-9-16-20-18(13-5-7-14(8-6-13)19(24)25)15(22(16)11-12)10-17(23)21(2)3/h4-9,11H,10H2,1-3H3,(H,24,25)
Instrument: Exploris 240 Orbitrap Thermo Scientific
Instrument type: LC-ESI-QFT
Ms type: MS2
Ion mode: POSITIVE
Ionization: ESI
Fragmentation mode: HCD
Collision energy: 90 % (nominal)
Resolution: 17500
Column name: XBridge C18 3.5um, 2.1x50mm, Waters
Retention time: 3.313 min
Base peak: 338.1493
Precursor m/z: 338.1499
Precursor type: [M+H]+
m/z	relative intensity	assigned
65.0385	99	C5H5+
92.0495	238	C6H6N+
93.0572	81	C6H7N+
110.0599	174	C6H8NO+
118.0647	34	C8H8N+
143.0608	6	C9H7N2+
145.0759	54	C9H9N2+
156.0439	41	C10H6NO+
181.0886	8	C13H11N+
205.0761	45	C14H9N2+
206.0842	29	C14H10N2+
218.084	5	C15H10N2+
219.0916	265	C15H11N2+
220.0994	234	C15H12N2+
221.1072	296	C15H13N2+
247.0865	38	C16H11N2O+
248.0943	18	C16H12N2O+
264.0892	14	C16H12N2O2+
265.097	999	C16H13N2O2+
