Mass spectrum: 6-2-FTS; LC-ESI-QFT; MS2; CE: 30%; R=17500; [M-H]-
Name: 6-2-FTS
Name: 1-Octanesulfonic acid, 3,3,4,4,5,5,6,6,7,7,8,8,8-tridecafluoro-
Name: 3,3,4,4,5,5,6,6,7,7,8,8,8-tridecafluorooctane-1-sulfonic acid
Formula: C8H5F13O3S
Exact mass: 427.97518188
SMILES: C(CS(=O)(=O)O)C(C(C(C(C(C(F)(F)F)(F)F)(F)F)(F)F)(F)F)(F)F
InChI: InChI=1S/C8H5F13O3S/c9-3(10,1-2-25(22,23)24)4(11,12)5(13,14)6(15,16)7(17,18)8(19,20)21/h1-2H2,(H,22,23,24)
Instrument: Exploris 240 Orbitrap Thermo Scientific
Instrument type: LC-ESI-QFT
Ms type: MS2
Ion mode: NEGATIVE
Ionization: ESI
Fragmentation mode: HCD
Collision energy: 30 % (nominal)
Resolution: 17500
Column name: XBridge C18 3.5um, 2.1x50mm, Waters
Retention time: 9.312 min
Base peak: 426.9677
Precursor m/z: 426.9679
Precursor type: [M-H]-
m/z	relative intensity	assigned
79.9574	35	O3S-
80.9652	390	HO3S-
386.9548	35	C8H2F11O3S-
406.9619	830	C8H3F12O3S-
426.9681	999	C8H4F13O3S-
