Mass spectrum: PFPrS; LC-ESI-QFT; MS2; CE: 60%; R=17500; [M-H]-
Name: PFPrS
Name: Perfluoropropanesulfonic acid
Name: 1,1,2,2,3,3,3-heptafluoropropane-1-sulfonic acid
Formula: C3HF7O3S
Exact mass: 249.953462432
SMILES: C(C(F)(F)F)(C(F)(F)S(=O)(=O)O)(F)F
InChI: InChI=1S/C3HF7O3S/c4-1(5,2(6,7)8)3(9,10)14(11,12)13/h(H,11,12,13)
Instrument: Exploris 240 Orbitrap Thermo Scientific
Instrument type: LC-ESI-QFT
Ms type: MS2
Ion mode: NEGATIVE
Ionization: ESI
Fragmentation mode: HCD
Collision energy: 60 % (nominal)
Resolution: 17500
Column name: XBridge C18 3.5um, 2.1x50mm, Waters
Retention time: 4.700 min
Base peak: 248.9461
Precursor m/z: 248.9462
Precursor type: [M-H]-
m/z	relative intensity	assigned
79.9574	999	O3S-
82.9609	61	FO2S-
98.9558	269	FO3S-
118.9926	131	C2F5-
168.9894	49	C3F7-
248.9463	372	C3F7O3S-
