Mass spectrum: Tribenuron-methyl; LC-ESI-QFT; MS2; CE: 90%; R=15000; [M+H]+
Name: Tribenuron-methyl
Name: methyl 2-[[(4-methoxy-6-methyl-1,3,5-triazin-2-yl)-methylcarbamoyl]sulfamoyl]benzoate
Formula: C15H17N5O6S
Exact mass: 395.0899543
SMILES: CC1=NC(=NC(=N1)OC)N(C)C(=O)NS(=O)(=O)C2=CC=CC=C2C(=O)OC
InChI: InChI=1S/C15H17N5O6S/c1-9-16-13(18-14(17-9)26-4)20(2)15(22)19-27(23,24)11-8-6-5-7-10(11)12(21)25-3/h5-8H,1-4H3,(H,19,22)
Instrument: Exploris 240 Thermo Scientific
Instrument type: LC-ESI-QFT
Ms type: MS2
Ion mode: POSITIVE
Ionization: ESI
Fragmentation mode: HCD
Collision energy: 90 % (nominal)
Resolution: 15000
Column name: XBridge C18 3.5um, 2.1x50mm, Waters
Retention time: 6.962 min
Base peak: 396.0963
Precursor m/z: 396.0972
Precursor type: [M+H]+
m/z	relative intensity	assigned
51.023	34	C4H3+
53.0386	28	C4H5+
56.0494	721	C3H6N+
57.0446	819	C2H5N2+
58.0287	350	C2H4NO+
71.0602	257	C3H7N2+
77.0384	368	C6H5+
79.0542	30	C6H7+
81.0445	268	C4H5N2+
82.0398	189	C3H4N3+
83.0238	999	C3H3N2O+
90.0336	192	C6H4N+
92.0254	212	C6H4O+
95.049	236	C6H7O+
96.0554	73	C4H6N3+
105.0447	140	C6H5N2+
114.066	71	C4H8N3O+
135.0438	98	C8H7O2+
155.0922	68	C6H11N4O+
