Mass spectrum: Torasemidecarboxylic acid; LC-ESI-QFT; MS2; CE: 60%; R=17500; [M-H]-
Name: Torasemidecarboxylic acid
Name: Torsemide Carboxylic Acid
Name: 3-[[3-(propan-2-ylcarbamoylsulfamoyl)pyridin-4-yl]amino]benzoic acid
Formula: C16H18N4O5S
Exact mass: 378.0997907
SMILES: CC(C)NC(=O)NS(=O)(=O)C1=C(C=CN=C1)NC2=CC=CC(=C2)C(=O)O
InChI: InChI=1S/C16H18N4O5S/c1-10(2)18-16(23)20-26(24,25)14-9-17-7-6-13(14)19-12-5-3-4-11(8-12)15(21)22/h3-10H,1-2H3,(H,17,19)(H,21,22)(H2,18,20,23)
Instrument: Exploris 240 Orbitrap Thermo Scientific
Instrument type: LC-ESI-QFT
Ms type: MS2
Ion mode: NEGATIVE
Ionization: ESI
Fragmentation mode: HCD
Collision energy: 60 % (nominal)
Resolution: 17500
Column name: XBridge C18 3.5um, 2.1x50mm, Waters
Retention time: 4.449 min
Base peak: 377.0924
Precursor m/z: 377.0925
Precursor type: [M-H]-
m/z	relative intensity	assigned
57.9758	14	CNS-
60.9754	101	CHOS-
77.9655	190	NO2S-
91.0426	89	C6H5N-
92.0381	286	C5H4N2-
93.0458	125	C5H5N2-
108.0329	435	C5H4N2O-
123.0023	21	C5H3N2S-
135.0023	38	C6H3N2S-
150.9968	158	C6H3N2OS-
155.0053	29	C6H5NO2S-
156	166	C5H4N2O2S-
167.0615	196	C11H7N2-
169.077	131	C11H9N2-
181.0646	999	C11H7N3-
182.0724	762	C11H8N3-
183.0562	72	C11H7N2O-
184.088	237	C11H10N3-
196.0523	25	C5H12N2O4S-
213.036	26	C11H7N3S-
229.0327	31	C13H9O2S-
230.0394	48	C11H8N3OS-
231.0235	131	C11H7N2O2S-
248.05	556	C11H10N3O2S-
292.0401	32	C12H10N3O4S-
