Mass spectrum: Diphenhydramine N-glucuronide; LC-ESI-QFT; MS2; CE: 180%; R=17500; [M+H]+
Name: Diphenhydramine N-glucuronide
Name: 6-[2-benzhydryloxyethyl(dimethyl)azaniumyl]-3,4,5-trihydroxyoxane-2-carboxylate
Formula: C23H29NO7
Exact mass: 431.1944023
SMILES: C[N+](C)(CCOC(C1=CC=CC=C1)C2=CC=CC=C2)C3C(C(C(C(O3)C(=O)[O-])O)O)O
InChI: InChI=1S/C23H29NO7/c1-24(2,22-19(27)17(25)18(26)21(31-22)23(28)29)13-14-30-20(15-9-5-3-6-10-15)16-11-7-4-8-12-16/h3-12,17-22,25-27H,13-14H2,1-2H3
Instrument: Exploris 240 Orbitrap Thermo Scientific
Instrument type: LC-ESI-QFT
Ms type: MS2
Ion mode: POSITIVE
Ionization: ESI
Fragmentation mode: HCD
Collision energy: 180 % (nominal)
Resolution: 17500
Column name: XBridge C18 3.5um, 2.1x50mm, Waters
Retention time: 5.862 min
Base peak: 432.2014
Precursor m/z: 432.2017
Precursor type: [M+H]+
m/z	relative intensity	assigned
55.0179	64	C3H3O+
63.0229	100	C5H3+
65.0386	149	C5H5+
71.0128	155	C3H3O2+
77.0388	33	C6H5+
78.0465	73	C6H6+
89.0388	87	C7H5+
91.0543	65	C7H7+
102.0464	162	C8H6+
115.0542	535	C9H7+
126.0465	129	C10H6+
127.0543	30	C10H7+
128.0621	217	C10H8+
139.0545	177	C11H7+
141.07	29	C11H9+
150.0463	98	C12H6+
151.0542	147	C12H7+
152.0622	484	C12H8+
163.0542	172	C13H7+
164.0623	265	C13H8+
165.07	999	C13H9+
169.0649	106	C12H9O+
