Mass spectrum: Desacetylbisacodyl; LC-ESI-QFT; MS2; CE: 75%; R=17500; [M+H]+
Name: Desacetylbisacodyl
Name: Deacetylbisacodyl
Name: 4-[(4-hydroxyphenyl)-pyridin-2-ylmethyl]phenol
Formula: C18H15NO2
Exact mass: 277.1102787
SMILES: C1=CC=NC(=C1)C(C2=CC=C(C=C2)O)C3=CC=C(C=C3)O
InChI: InChI=1S/C18H15NO2/c20-15-8-4-13(5-9-15)18(17-3-1-2-12-19-17)14-6-10-16(21)11-7-14/h1-12,18,20-21H
Instrument: Exploris 240 Orbitrap Thermo Scientific
Instrument type: LC-ESI-QFT
Ms type: MS2
Ion mode: POSITIVE
Ionization: ESI
Fragmentation mode: HCD
Collision energy: 75 % (nominal)
Resolution: 17500
Column name: XBridge C18 3.5um, 2.1x50mm, Waters
Retention time: 3.446 min
Base peak: 278.117
Precursor m/z: 278.1176
Precursor type: [M+H]+
m/z	relative intensity	assigned
78.0337	4	C5H4N+
129.0698	17	C10H9+
154.0651	21	C11H8N+
155.0727	10	C11H9N+
156.0808	82	C11H10N+
166.0649	42	C12H8N+
167.0729	575	C12H9N+
183.0678	570	C12H9NO+
184.0756	999	C12H10NO+
