Mass spectrum: Indoxacarb; LC-ESI-QFT; MS2; CE: 120%; R=15000; [M+H]+
Name: Indoxacarb
Name: methyl (4aS)-7-chloro-2-[methoxycarbonyl-[4-(trifluoromethoxy)phenyl]carbamoyl]-3,5-dihydroindeno[1,2-e][1,3,4]oxadiazine-4a-carboxylate
Formula: C22H17ClF3N3O7
Exact mass: 527.0707122
SMILES: COC(=O)N(C(=O)N1CO[C@]2(CC3=C(C=CC(Cl)=C3)C2=N1)C(=O)OC)C1=CC=C(OC(F)(F)F)C=C1
InChI: InChI=1S/C22H17ClF3N3O7/c1-33-18(30)21-10-12-9-13(23)3-8-16(12)17(21)27-28(11-35-21)19(31)29(20(32)34-2)14-4-6-15(7-5-14)36-22(24,25)26/h3-9H,10-11H2,1-2H3/t21-/m0/s1
Instrument: Q Exactive Plus
Instrument type: LC-ESI-QFT
Ms type: MS2
Ion mode: POSITIVE
Ionization: ESI
Fragmentation mode: HCD
Collision energy: 120 % (nominal)
Resolution: 15000
Column name: XBridge C18 3.5um, 2.1x50mm, Waters
Retention time: 12.982 min
Base peak: 528.0783
Precursor m/z: 528.078
Precursor type: [M+H]+
Precursor intensity: 66716548.9
m/z	relative intensity	assigned
50.0151	146	C4H2+
51.0229	285	C4H3+
52.0182	30	C3H2N+
53.0386	60	C4H5+
56.0131	511	C2H2NO+
62.0152	40	C5H2+
63.0229	171	C5H3+
64.0182	23	C4H2N+
65.0386	43	C5H5+
66.0463	24	C5H6+
68.9947	634	CF3+
69.9924	26	C2NO2+
72.984	100	C3H2Cl+
74.015	68	C6H2+
75.0229	289	C6H3+
76.0183	19	C5H2N+
76.0307	21	C6H4+
77.0022	76	C5HO+
77.0385	62	C6H5+
78.0338	895	C5H4N+
83.0291	30	C5H4F+
87.0231	49	C7H3+
88.0183	47	C6H2N+
88.0308	51	C7H4+
89.0386	349	C7H5+
90.0339	45	C6H4N+
90.0465	59	C7H6+
91.0542	31	C7H7+
95.0492	201	C6H7O+
96.0444	156	C5H6NO+
96.9841	54	C5H2Cl+
98.0151	41	C8H2+
98.9996	65	C5H4Cl+
99.0229	276	C8H3+
100.0182	179	C7H2N+
100.0307	48	C8H4+
101.0386	44	C8H5+
102.0464	156	C8H6+
104.0496	28	C7H6N+
105.0447	62	C6H5N2+
106.0288	999	C6H4NO+
113.0386	264	C9H5+
114.0339	279	C8H4N+
114.0459	52	C4H5FN3+
115.0421	102	C8H5N+
115.0542	453	C9H7+
116.0622	27	C9H8+
118.0287	14	C7H4NO+
118.0413	29	C8H6O+
119.0492	45	C8H7O+
122.9996	571	C7H4Cl+
123.9947	40	C6H3ClN+
124.0076	95	C7H5Cl+
125.0152	13	C7H6Cl+
126.034	104	C9H4N+
126.0465	68	C10H6+
127.0417	409	C9H5N+
128.05	49	C9H6N+
128.062	104	C10H8+
129.0447	78	C8H5N2+
132.057	60	C9H8O+
134.0237	278	C7H4NO2+
136.0075	234	C8H5Cl+
140.0494	49	C10H6N+
141.0574	32	C10H7N+
142.0651	17	C10H8N+
144.0445	32	C9H6NO+
145.0649	27	C10H9O+
149.0152	187	C9H6Cl+
150.0104	111	C8H5ClN+
152.0025	72	C8H5ClO+
154.0401	77	C9H4N3+
161.0026	30	C9H4ClN+
162.0103	36	C9H5ClN+
163.006	18	C8H4ClN2+
168.0211	52	C8H7ClNO+
