Mass spectrum: Triglycidyl isocyanurate; LC-ESI-QFT; MS2; CE: 180%; R=15000; [M+H]+
Name: Triglycidyl isocyanurate
Name: 1,3,5-tris(oxiran-2-ylmethyl)-1,3,5-triazinane-2,4,6-trione
Formula: C12H15N3O6
Exact mass: 297.0960852
SMILES: O=C1N(CC2CO2)C(=O)N(CC2CO2)C(=O)N1CC1CO1
InChI: InChI=1S/C12H15N3O6/c16-10-13(1-7-4-19-7)11(17)15(3-9-6-21-9)12(18)14(10)2-8-5-20-8/h7-9H,1-6H2
Instrument: Exploris 240 Thermo Scientific
Instrument type: LC-ESI-QFT
Ms type: MS2
Ion mode: POSITIVE
Ionization: ESI
Fragmentation mode: HCD
Collision energy: 180 % (nominal)
Resolution: 15000
Column name: XBridge C18 3.5um, 2.1x50mm, Waters
Retention time: 2.903 min
Base peak: 298.1031
Precursor m/z: 298.1034
Precursor type: [M+H]+
m/z	relative intensity	assigned
54.0338	177	C3H4N+
56.013	192	C2H2NO+
69.9923	999	C2NO2+
