Mass spectrum: Hydroxytorasemide; LC-ESI-QFT; MS2; CE: 150%; R=17500; [M+H]+
Name: Hydroxytorasemide
Name: Torasemide metabolite M1
Name: 1-[4-[3-(hydroxymethyl)anilino]pyridin-3-yl]sulfonyl-3-propan-2-ylurea
Formula: C16H20N4O4S
Exact mass: 364.1205261
SMILES: CC(C)NC(=O)NS(=O)(=O)C1=C(C=CN=C1)NC2=CC=CC(=C2)CO
InChI: InChI=1S/C16H20N4O4S/c1-11(2)18-16(22)20-25(23,24)15-9-17-7-6-14(15)19-13-5-3-4-12(8-13)10-21/h3-9,11,21H,10H2,1-2H3,(H,17,19)(H2,18,20,22)
Instrument: Exploris 240 Orbitrap Thermo Scientific
Instrument type: LC-ESI-QFT
Ms type: MS2
Ion mode: POSITIVE
Ionization: ESI
Fragmentation mode: HCD
Collision energy: 150 % (nominal)
Resolution: 17500
Column name: XBridge C18 3.5um, 2.1x50mm, Waters
Retention time: 4.126 min
Base peak: 365.1276
Precursor m/z: 365.1278
Precursor type: [M+H]+
m/z	relative intensity	assigned
51.023	75	C4H3+
53.0386	20	C4H5+
63.0231	55	C5H3+
65.0387	97	C5H5+
67.0417	30	C4H5N+
75.0231	61	C6H3+
77.0386	194	C6H5+
78.0339	23	C5H4N+
79.0418	39	C5H5N+
81.045	33	C4H5N2+
88.0308	23	C7H4+
89.0386	354	C7H5+
90.0464	68	C7H6+
91.0546	25	C7H7+
95.0491	52	C6H7O+
101.0388	45	C8H5+
102.0463	17	C8H6+
105.0446	49	C6H5N2+
113.0383	57	C9H5+
114.0462	155	C9H6+
115.0542	999	C9H7+
116.0493	103	C8H6N+
117.0574	128	C8H7N+
125.0386	24	C10H5+
126.0466	53	C10H6+
127.054	97	C10H7+
128.0497	133	C9H6N+
129.045	75	C8H5N2+
129.0569	20	CH11N3O2S+
130.0648	13	C9H8N+
140.0494	324	C10H6N+
141.0573	166	C10H7N+
142.0525	39	C9H6N2+
142.0655	39	C10H8N+
146.0604	25	C9H8NO+
152.0499	21	C5H12O3S+
153.0571	58	C11H7N+
154.0651	93	C11H8N+
155.0601	108	C10H7N2+
166.0528	22	C11H6N2+
167.0603	55	C3H11N4O2S+
168.0683	208	C11H8N2+
169.0762	148	C11H9N2+
179.0606	57	C12H7N2+
181.0761	327	C12H9N2+
182.0839	82	C12H10N2+
197.0711	25	C12H9N2O+
