Mass spectrum: Lercanidipine; LC-ESI-QFT; MS2; CE: 15%; R=17500; [M+H]+
Name: Lercanidipine
Name: 5-O-[1-[3,3-diphenylpropyl(methyl)amino]-2-methylpropan-2-yl] 3-O-methyl 2,6-dimethyl-4-(3-nitrophenyl)-1,4-dihydropyridine-3,5-dicarboxylate
Formula: C36H41N3O6
Exact mass: 611.299536032
SMILES: CC1=C(C(C(=C(N1)C)C(=O)OC(C)(C)CN(C)CCC(C2=CC=CC=C2)C3=CC=CC=C3)C4=CC(=CC=C4)[N+](=O)[O-])C(=O)OC
InChI: InChI=1S/C36H41N3O6/c1-24-31(34(40)44-6)33(28-18-13-19-29(22-28)39(42)43)32(25(2)37-24)35(41)45-36(3,4)23-38(5)21-20-30(26-14-9-7-10-15-26)27-16-11-8-12-17-27/h7-19,22,30,33,37H,20-21,23H2,1-6H3
Instrument: Exploris 240 Orbitrap Thermo Scientific
Instrument type: LC-ESI-QFT
Ms type: MS2
Ion mode: POSITIVE
Ionization: ESI
Fragmentation mode: HCD
Collision energy: 15 % (nominal)
Resolution: 17500
Column name: XBridge C18 3.5um, 2.1x50mm, Waters
Retention time: 11.139 min
Base peak: 132.9582
Precursor m/z: 612.3068
Precursor type: [M+H]+
m/z	relative intensity	assigned
100.112	22	C6H14N+
280.2059	999	C20H26N+
298.2167	249	C20H28NO+
315.0969	46	C16H15N2O5+
387.1559	63	C20H23N2O6+
