Mass spectrum: Pyraflufen-ethyl; LC-ESI-QFT; MS2; CE: 75%; R=15000; [M+H]+
Name: Pyraflufen-ethyl
Name: ethyl 2-[2-chloro-5-[4-chloro-5-(difluoromethoxy)-1-methylpyrazol-3-yl]-4-fluorophenoxy]acetate
Formula: C15H13Cl2F3N2O4
Exact mass: 412.0204469
SMILES: CCOC(=O)COC1=C(C=C(C(=C1)C2=NN(C(=C2Cl)OC(F)F)C)F)Cl
InChI: InChI=1S/C15H13Cl2F3N2O4/c1-3-24-11(23)6-25-10-4-7(9(18)5-8(10)16)13-12(17)14(22(2)21-13)26-15(19)20/h4-5,15H,3,6H2,1-2H3
Instrument: Exploris 240 Thermo Scientific
Instrument type: LC-ESI-QFT
Ms type: MS2
Ion mode: POSITIVE
Ionization: ESI
Fragmentation mode: HCD
Collision energy: 75 % (nominal)
Resolution: 15000
Column name: XBridge C18 3.5um, 2.1x50mm, Waters
Retention time: 11.460 min
Base peak: 413.0276
Precursor m/z: 413.0277
Precursor type: [M+H]+
m/z	relative intensity	assigned
58.0289	56	C2H4NO+
62.9632	48	CClO+
78.0107	34	C2H5ClN+
134.0407	29	C8H5FN+
135.0482	53	C8H6FN+
140.9903	54	C7H3ClF+
148.0194	83	C8H3FNO+
156.0009	194	C7H4ClFN+
161.0516	209	C6H7F2N2O+
168.0008	289	C11HFO+
169.0085	219	C8H5ClFN+
171.9719	44	C7H4Cl2N+
176.9672	110	C7H4Cl2F+
177.0212	260	C9H6ClN2+
183.9962	126	C8H4ClFNO+
190.0534	593	C10H7FN2O+
195.0115	20	C12H2FNO+
197.004	243	C9H5ClFNO+
197.0278	446	C9H7ClFN2+
201.9618	142	C8H3Cl2FN+
203.9778	73	C8H5Cl2FN+
213.0223	750	C9H7ClFN2O+
219.0562	86	C11H8FN2O2+
225.0224	330	C10H7ClFN2O+
226.0304	536	C10H8ClFN2O+
247.9913	408	C9H7Cl2FN2O+
253.0173	999	C11H7ClFN2O2+
254.0249	370	C11H8ClFN2O2+
260.9987	481	C10H8Cl2FN2O+
275.9861	554	C10H7Cl2FN2O2+
