Mass spectrum: Hexa(methoxymethyl)melamine; LC-ESI-QFT; MS2; CE: 60%; R=17500; [M+H]+
Name: Hexa(methoxymethyl)melamine
Name: 2-N,2-N,4-N,4-N,6-N,6-N-hexakis(methoxymethyl)-1,3,5-triazine-2,4,6-triamine
Formula: C15H30N6O6
Exact mass: 390.2226827
SMILES: COCN(COC)C1=NC(=NC(=N1)N(COC)COC)N(COC)COC
InChI: InChI=1S/C15H30N6O6/c1-22-7-19(8-23-2)13-16-14(20(9-24-3)10-25-4)18-15(17-13)21(11-26-5)12-27-6/h7-12H2,1-6H3
Instrument: Exploris 240 Orbitrap Thermo Scientific
Instrument type: LC-ESI-QFT
Ms type: MS2
Ion mode: POSITIVE
Ionization: ESI
Fragmentation mode: HCD
Collision energy: 60 % (nominal)
Resolution: 17500
Column name: XBridge C18 3.5um, 2.1x50mm, Waters
Retention time: 6.393 min
Base peak: 359.2034
Precursor m/z: 391.23
Precursor type: [M+H]+
m/z	relative intensity	assigned
69.0446	39	C3H5N2+
82.0397	4	C3H4N3+
96.0554	30	C4H6N3+
123.0665	10	C5H7N4+
148.0618	7	C6H6N5+
150.0772	6	C6H8N5+
177.0881	999	C7H9N6+
193.1192	10	C8H13N6+
207.0991	9	C8H11N6O+
253.1406	5	C10H17N6O2+
