Mass spectrum: Picloram; LC-ESI-QFT; MS2; CE: 180%; R=15000; [M+H]+
Name: Picloram
Name: 4-amino-3,5,6-trichloropyridine-2-carboxylic acid
Formula: C6H3Cl3N2O2
Exact mass: 239.9260104
SMILES: C1(=C(C(=NC(=C1Cl)Cl)C(=O)O)Cl)N
InChI: InChI=1S/C6H3Cl3N2O2/c7-1-3(10)2(8)5(9)11-4(1)6(12)13/h(H2,10,11)(H,12,13)
Instrument: Exploris 240 Thermo Scientific
Instrument type: LC-ESI-QFT
Ms type: MS2
Ion mode: POSITIVE
Ionization: ESI
Fragmentation mode: HCD
Collision energy: 180 % (nominal)
Resolution: 15000
Column name: XBridge C18 3.5um, 2.1x50mm, Waters
Retention time: 3.468 min
Base peak: 240.9333
Precursor m/z: 240.9333
Precursor type: [M+H]+
m/z	relative intensity	assigned
61.9792	101	CHClN+
64.0181	78	C4H2N+
71.9762	157	C3HCl+
72.9841	60	C3H2Cl+
73.9793	97	C2HClN+
74.9871	81	C2H2ClN+
82.945	292	CHCl2+
85.9794	127	C3HClN+
89.0135	93	C5HN2+
90.0213	303	C5H2N2+
96.9714	193	C4ClN+
97.9792	393	C4HClN+
98.9871	137	C4H2ClN+
105.9372	605	C3Cl2+
106.9451	92	C3HCl2+
107.9402	253	C2Cl2N+
116.9061	70	CCl3+
124.9902	103	C5H2ClN2+
131.9402	137	C4Cl2N+
140.906	999	C3Cl3+
