Mass spectrum: 5-Chloro-2-methyl-3(2H)-isothiazolone; LC-ESI-QFT; MS2; CE: 90%; R=15000; [M+H]+
Name: 5-Chloro-2-methyl-3(2H)-isothiazolone
Name: 5-Chloro-2-methyl-4-isothiazolin-3-one
Name: 5-chloro-2-methyl-1,2-thiazol-3-one
Formula: C4H4ClNOS
Exact mass: 148.9702124
SMILES: CN1SC(Cl)=CC1=O
InChI: InChI=1S/C4H4ClNOS/c1-6-4(7)2-3(5)8-6/h2H,1H3
Instrument: Q Exactive Plus
Instrument type: LC-ESI-QFT
Ms type: MS2
Ion mode: POSITIVE
Ionization: ESI
Fragmentation mode: HCD
Collision energy: 90 % (nominal)
Resolution: 15000
Column name: XBridge C18 3.5um, 2.1x50mm, Waters
Retention time: 3.393 min
Base peak: 149.9776
Precursor m/z: 149.9775
Precursor type: [M+H]+
Precursor intensity: 734386484.33
m/z	relative intensity	assigned
54.034	10	C3H4N+
56.9793	17	C2HS+
57.9872	45	C2H2S+
58.0288	479	C2H4NO+
58.995	173	C2H3S+
59.9902	77	CH2NS+
60.0028	34	C2H4S+
60.9838	14	C2H2Cl+
62.0059	57	CH4NS+
62.9996	33	C2H4Cl+
63.9949	18	CH3ClN+
66.0105	24	CH5ClN+
67.0179	250	C4H3O+
68.9792	42	C3HS+
69.9746	38	C2NS+
69.9872	26	C3H2S+
70.995	230	C3H3S+
71.9903	27	C2H2NS+
72.0028	57	C3H4S+
72.9838	46	C3H2Cl+
74.0059	122	C2H4NS+
74.9997	64	C3H4Cl+
78.0105	84	C2H5ClN+
78.9404	111	CClS+
79.9481	38	CHClS+
82.9824	55	C3HNS+
83.9665	158	C3OS+
84.9742	66	C3HOS+
86.0059	130	C3H4NS+
86.9633	407	C3ClO+
87.0138	95	C3H5NS+
87.995	41	C3H3ClN+
88.979	17	C3H2ClO+
90.0008	23	C2H4NOS+
90.9406	43	C2ClS+
92.9562	114	C2H2ClS+
94.9717	69	C2H4ClS+
95.9903	352	C4H2NS+
102.9404	61	C3ClS+
102.9945	143	C4H4ClO+
104.9561	147	C3H2ClS+
106.0056	33	C3H5ClNO+
106.9593	140	C2H2ClNS+
106.9715	70	C3H4ClS+
114.0008	23	C4H4NOS+
115.0087	444	C4H5NOS+
116.9977	29	C4H4ClNO+
118.9353	413	C3ClOS+
120.951	110	C3H2ClOS+
132.9509	26	C4H2ClOS+
134.954	656	C3H2ClNOS+
149.9776	999	C4H5ClNOS+
