Mass spectrum: Pentoxifylline; LC-ESI-QFT; MS2; CE: 15%; R=17500; [M+H]+
Name: Pentoxifylline
Name: 3,7-dimethyl-1-(5-oxohexyl)purine-2,6-dione
Formula: C13H18N4O3
Exact mass: 278.1378904
SMILES: CC(=O)CCCCN1C(=O)C2=C(N=CN2C)N(C1=O)C
InChI: InChI=1S/C13H18N4O3/c1-9(18)6-4-5-7-17-12(19)10-11(14-8-15(10)2)16(3)13(17)20/h8H,4-7H2,1-3H3
Instrument: Exploris 240 Orbitrap Thermo Scientific
Instrument type: LC-ESI-QFT
Ms type: MS2
Ion mode: POSITIVE
Ionization: ESI
Fragmentation mode: HCD
Collision energy: 15 % (nominal)
Resolution: 17500
Column name: XBridge C18 3.5um, 2.1x50mm, Waters
Retention time: 4.458 min
Base peak: 279.1449
Precursor m/z: 279.1452
Precursor type: [M+H]+
m/z	relative intensity	assigned
99.0802	8	C6H11O+
181.0718	35	C7H9N4O2+
279.1452	999	C13H19N4O3+
