Mass spectrum: Diazepam; LC-ESI-QFT; MS2; CE: 120%; R=15000; [M+H]+
Name: Diazepam
Name: 7-chloro-1-methyl-5-phenyl-3H-1,4-benzodiazepin-2-one
Formula: C16H13ClN2O
Exact mass: 284.0716407
SMILES: CN1C2=C(C=C(Cl)C=C2)C(=NCC1=O)C1=CC=CC=C1
InChI: InChI=1S/C16H13ClN2O/c1-19-14-8-7-12(17)9-13(14)16(18-10-15(19)20)11-5-3-2-4-6-11/h2-9H,10H2,1H3
Instrument: Q Exactive Plus
Instrument type: LC-ESI-QFT
Ms type: MS2
Ion mode: POSITIVE
Ionization: ESI
Fragmentation mode: HCD
Collision energy: 120 % (nominal)
Resolution: 15000
Column name: XBridge C18 3.5um, 2.1x50mm, Waters
Retention time: 8.885 min
Base peak: 285.079
Precursor m/z: 285.0789
Precursor type: [M+H]+
Precursor intensity: 504649844.09
m/z	relative intensity	assigned
50.0152	25	C4H2+
51.0229	58	C4H3+
53.0386	59	C4H5+
58.0288	43	C2H4NO+
63.0229	118	C5H3+
65.0386	273	C5H5+
66.0464	52	C5H6+
72.9839	46	C3H2Cl+
74.0152	11	C6H2+
75.0229	81	C6H3+
77.0385	59	C6H5+
79.0542	15	C6H7+
89.0385	999	C7H5+
90.0464	400	C7H6+
91.0542	692	C7H7+
95.0491	189	C6H7O+
98.9996	238	C5H4Cl+
100.0182	53	C7H2N+
102.0339	16	C7H4N+
104.0494	159	C7H6N+
105.0447	53	C6H5N2+
110.9998	13	C6H4Cl+
112.0074	29	C6H5Cl+
114.0105	19	C5H5ClN+
114.0338	20	C8H4N+
115.0416	22	C8H5N+
116.0494	174	C8H6N+
117.0573	280	C8H7N+
118.0286	26	C7H4NO+
118.0651	303	C8H8N+
119.0729	73	C8H9N+
122.9996	89	C7H4Cl+
124.0073	13	C7H5Cl+
125.0153	239	C7H6Cl+
129.0102	38	C6H6ClO+
129.0446	18	C8H5N2+
134.0602	26	C8H8NO+
135.9953	19	C7H3ClN+
138.0106	148	C7H5ClN+
139.0057	49	C6H4ClN2+
140.0261	30	C7H7ClN+
142.0526	24	C9H6N2+
143.0604	202	C9H7N2+
152.0621	124	C12H8+
153.0697	34	C12H9+
154.0055	22	C7H5ClNO+
163.0056	139	C8H4ClN2+
164.0009	112	C10N2O+
164.0623	35	C13H8+
165.0698	541	C13H9+
166.0649	15	C12H8N+
166.0777	21	C13H10+
167.0729	32	C12H9N+
169.0647	62	C12H9O+
176.0622	34	C14H8+
177.0569	35	C13H7N+
177.0703	22	C14H9+
178.0651	48	C13H8N+
178.0782	11	C14H10+
179.0729	176	C13H9N+
180.0806	137	C13H10N+
181.0162	24	C8H6ClN2O+
190.0648	67	C14H8N+
191.0731	68	C14H9N+
192.0809	145	C14H10N+
193.0885	144	C14H11N+
194.0966	25	C14H12N+
199.0309	15	C13H8Cl+
204.0813	79	C15H10N+
205.0759	155	C14H9N2+
206.0835	202	C14H10N2+
211.063	27	C10H12ClN2O+
213.0335	30	C16H5O+
239.0363	33	C14H8ClN2+
240.0448	41	C14H9ClN2+
241.0527	31	C14H10ClN2+
