Mass spectrum: Paracetamol sulfate; LC-ESI-QFT; MS2; CE: 150%; R=17500; [M+H]+
Name: Paracetamol sulfate
Name: Acetaminophen sulfate
Name: (4-acetamidophenyl) hydrogen sulfate
Formula: C8H9NO5S
Exact mass: 231.0201434
SMILES: CC(=O)NC1=CC=C(C=C1)OS(=O)(=O)O
InChI: InChI=1S/C8H9NO5S/c1-6(10)9-7-2-4-8(5-3-7)14-15(11,12)13/h2-5H,1H3,(H,9,10)(H,11,12,13)
Instrument: Exploris 240 Orbitrap Thermo Scientific
Instrument type: LC-ESI-QFT
Ms type: MS2
Ion mode: POSITIVE
Ionization: ESI
Fragmentation mode: HCD
Collision energy: 150 % (nominal)
Resolution: 17500
Column name: XBridge C18 3.5um, 2.1x50mm, Waters
Retention time: 1.646 min
Base peak: 132.9582
Precursor m/z: 232.0274
Precursor type: [M+H]+
m/z	relative intensity	assigned
53.0385	56	C4H5+
65.0385	999	C5H5+
67.0417	40	C4H5N+
80.0495	239	C5H6N+
81.0574	15	C5H7N+
82.0654	19	C5H8N+
92.0493	61	C6H6N+
93.0335	54	C6H5O+
93.0574	81	C6H7N+
108.0446	22	C6H6NO+
109.0521	60	C6H7NO+
110.0602	43	C6H8NO+
111.0442	22	C6H7O2+
