Mass spectrum: Paracetamol sulfate; LC-ESI-QFT; MS2; CE: 75%; R=17500; [M+H]+
Name: Paracetamol sulfate
Name: Acetaminophen sulfate
Name: (4-acetamidophenyl) hydrogen sulfate
Formula: C8H9NO5S
Exact mass: 231.0201434
SMILES: CC(=O)NC1=CC=C(C=C1)OS(=O)(=O)O
InChI: InChI=1S/C8H9NO5S/c1-6(10)9-7-2-4-8(5-3-7)14-15(11,12)13/h2-5H,1H3,(H,9,10)(H,11,12,13)
Instrument: Exploris 240 Orbitrap Thermo Scientific
Instrument type: LC-ESI-QFT
Ms type: MS2
Ion mode: POSITIVE
Ionization: ESI
Fragmentation mode: HCD
Collision energy: 75 % (nominal)
Resolution: 17500
Column name: XBridge C18 3.5um, 2.1x50mm, Waters
Retention time: 1.646 min
Base peak: 132.9582
Precursor m/z: 232.0274
Precursor type: [M+H]+
m/z	relative intensity	assigned
65.0385	64	C5H5+
80.0494	12	C5H6N+
82.0651	27	C5H8N+
92.0494	68	C6H6N+
93.0334	100	C6H5O+
108.0443	47	C6H6NO+
109.0521	12	C6H7NO+
110.06	999	C6H8NO+
111.044	41	C6H7O2+
134.0598	16	C8H8NO+
152.0705	141	C8H10NO2+
