Mass spectrum: Tropicamide; LC-ESI-QFT; MS2; CE: 45%; R=15000; [M+H]+
Name: Tropicamide
Name: N-ethyl-3-hydroxy-2-phenyl-N-(pyridin-4-ylmethyl)propanamide
Formula: C17H20N2O2
Exact mass: 284.1524779
SMILES: CCN(CC1=CC=NC=C1)C(=O)C(CO)C2=CC=CC=C2
InChI: InChI=1S/C17H20N2O2/c1-2-19(12-14-8-10-18-11-9-14)17(21)16(13-20)15-6-4-3-5-7-15/h3-11,16,20H,2,12-13H2,1H3
Instrument: Exploris 240 Thermo Scientific
Instrument type: LC-ESI-QFT
Ms type: MS2
Ion mode: POSITIVE
Ionization: ESI
Fragmentation mode: HCD
Collision energy: 45 % (nominal)
Resolution: 15000
Column name: XBridge C18 3.5um, 2.1x50mm, Waters
Retention time: 3.452 min
Base peak: 285.1595
Precursor m/z: 285.1598
Precursor type: [M+H]+
m/z	relative intensity	assigned
58.0651	75	C3H8N+
80.0495	97	C5H6N+
91.0541	23	C7H7+
92.0496	155	C6H6N+
93.0573	140	C6H7N+
107.0603	94	C6H7N2+
108.0681	36	C6H8N2+
121.0648	68	C8H9O+
135.0917	459	C8H11N2+
136.0996	90	C8H12N2+
137.1074	146	C8H13N2+
146.0963	15	C10H12N+
182.0964	43	C13H12N+
196.1115	26	C14H14N+
226.1097	72	C14H14N2O+
238.1098	14	C15H14N2O+
255.1493	999	C16H19N2O+
267.1493	101	C17H19N2O+
285.1599	864	C17H21N2O2+
