Mass spectrum: Prazosin; LC-ESI-QFT; MS2; CE: 150%; R=17500; [M+H]+
Name: Prazosin
Name: [4-(4-amino-6,7-dimethoxyquinazolin-2-yl)piperazin-1-yl]-(furan-2-yl)methanone
Formula: C19H21N5O4
Exact mass: 383.159354152
SMILES: COC1=C(C=C2C(=C1)C(=NC(=N2)N3CCN(CC3)C(=O)C4=CC=CO4)N)OC
InChI: InChI=1S/C19H21N5O4/c1-26-15-10-12-13(11-16(15)27-2)21-19(22-17(12)20)24-7-5-23(6-8-24)18(25)14-4-3-9-28-14/h3-4,9-11H,5-8H2,1-2H3,(H2,20,21,22)
Instrument: Exploris 240 Orbitrap Thermo Scientific
Instrument type: LC-ESI-QFT
Ms type: MS2
Ion mode: POSITIVE
Ionization: ESI
Fragmentation mode: HCD
Collision energy: 150 % (nominal)
Resolution: 17500
Column name: XBridge C18 3.5um, 2.1x50mm, Waters
Retention time: 4.835 min
Base peak: 384.1665
Precursor m/z: 384.1666
Precursor type: [M+H]+
m/z	relative intensity	assigned
51.0229	17	C4H3+
52.0308	9	C4H4+
53.0024	17	C3HO+
63.023	61	C5H3+
64.018	7	C4H2N+
64.0307	13	C5H4+
65.0385	23	C5H5+
67.0179	55	C4H3O+
77.0259	14	C5H3N+
78.0339	42	C5H4N+
79.0416	29	C5H5N+
80.0494	11	C5H6N+
83.013	15	C4H3O2+
90.034	49	C6H4N+
91.0419	20	C6H5N+
94.0288	28	C5H4NO+
95.0128	999	C5H3O2+
104.05	12	C7H6N+
105.0448	87	C6H5N2+
106.0286	30	C6H4NO+
106.0527	44	C6H6N2+
119.0364	11	C7H5NO+
120.008	13	C6H2NO2+
120.0446	8	C7H6NO+
131.0607	13	C8H7N2+
133.0396	65	C7H5N2O+
135.0319	10	C7H5NO2+
135.0551	9	C7H7N2O+
150.0548	8	C8H8NO2+
160.0503	14	C8H6N3O+
161.0347	28	C8H5N2O2+
