Mass spectrum: Tapentadol O-sulfate; LC-ESI-QFT; MS2; CE: 60%; R=17500; [M-H]-
Name: Tapentadol O-sulfate
Name: [3-[1-(dimethylamino)-2-methylpentan-3-yl]phenyl] hydrogen sulfate
Formula: C14H23NO4S
Exact mass: 301.1347792
SMILES: CCC(C1=CC(=CC=C1)OS(=O)(=O)O)C(C)CN(C)C
InChI: InChI=1S/C14H23NO4S/c1-5-14(11(2)10-15(3)4)12-7-6-8-13(9-12)19-20(16,17)18/h6-9,11,14H,5,10H2,1-4H3,(H,16,17,18)
Instrument: Exploris 240 Orbitrap Thermo Scientific
Instrument type: LC-ESI-QFT
Ms type: MS2
Ion mode: NEGATIVE
Ionization: ESI
Fragmentation mode: HCD
Collision energy: 60 % (nominal)
Resolution: 17500
Column name: XBridge C18 3.5um, 2.1x50mm, Waters
Retention time: 4.230 min
Base peak: 300.1274
Precursor m/z: 300.1275
Precursor type: [M-H]-
m/z	relative intensity	assigned
79.9573	187	O3S-
92.0271	1	C6H4O-
119.0502	153	C8H7O-
133.0658	66	C9H9O-
134.0737	78	C9H10O-
135.0815	5	C9H11O-
137.0244	6	C7H5O3-
147.0816	7	C10H11O-
199.0073	18	C8H7O4S-
213.0225	2	C9H9O4S-
220.1707	999	C14H22NO-
300.1271	9	C14H22NO4S-
