Mass spectrum: Fenhexamid; LC-ESI-QFT; MS2; CE: 90%; R=15000; [M-H]-
Name: Fenhexamid
Name: N-(2,3-dichloro-4-hydroxyphenyl)-1-methylcyclohexane-1-carboxamide
Formula: C14H17Cl2NO2
Exact mass: 301.0636341
SMILES: CC1(CCCCC1)C(=O)NC1=C(Cl)C(Cl)=C(O)C=C1
InChI: InChI=1S/C14H17Cl2NO2/c1-14(7-3-2-4-8-14)13(19)17-9-5-6-10(18)12(16)11(9)15/h5-6,18H,2-4,7-8H2,1H3,(H,17,19)
Instrument: Q Exactive Plus
Instrument type: LC-ESI-QFT
Ms type: MS2
Ion mode: NEGATIVE
Ionization: ESI
Fragmentation mode: HCD
Collision energy: 90 % (nominal)
Resolution: 15000
Column name: XBridge C18 3.5um, 2.1x50mm, Waters
Retention time: 10.237 min
Base peak: 300.0565
Precursor m/z: 300.0564
Precursor type: [M-H]-
Precursor intensity: 12160523.46
m/z	relative intensity	assigned
103.0063	44	C6HNO-
120.0092	76	C6H2NO2-
138.9831	218	C6H2ClNO-
155.9857	117	C6H3ClNO2-
167.9859	59	C7H3ClNO2-
180.9936	553	C8H4ClNO2-
184.0404	120	C11H6NO2-
184.0766	139	C12H10NO-
191.9861	332	C9H3ClNO2-
192.9935	290	C9H4ClNO2-
194.0015	263	C9H5ClNO2-
195.009	44	C9H6ClNO2-
208.0175	104	C10H7ClNO2-
212.0719	194	C13H10NO2-
220.0171	999	C11H7ClNO2-
221.0252	216	C11H8ClNO2-
248.0485	835	C13H11ClNO2-
249.0573	32	C13H12ClNO2-
