Mass spectrum: Tebufenpyrad; LC-ESI-QFT; MS2; CE: 120%; R=15000; [M+H]+
Name: Tebufenpyrad
Name: N-[(4-tert-butylphenyl)methyl]-4-chloro-5-ethyl-2-methylpyrazole-3-carboxamide
Formula: C18H24ClN3O
Exact mass: 333.1607901
SMILES: CCC1=NN(C(=C1Cl)C(=O)NCC2=CC=C(C=C2)C(C)(C)C)C
InChI: InChI=1S/C18H24ClN3O/c1-6-14-15(19)16(22(5)21-14)17(23)20-11-12-7-9-13(10-8-12)18(2,3)4/h7-10H,6,11H2,1-5H3,(H,20,23)
Instrument: Exploris 240 Thermo Scientific
Instrument type: LC-ESI-QFT
Ms type: MS2
Ion mode: POSITIVE
Ionization: ESI
Fragmentation mode: HCD
Collision energy: 120 % (nominal)
Resolution: 15000
Column name: XBridge C18 3.5um, 2.1x50mm, Waters
Retention time: 13.410 min
Base peak: 334.1678
Precursor m/z: 334.1681
Precursor type: [M+H]+
m/z	relative intensity	assigned
54.0338	100	C3H4N+
56.0494	18	C3H6N+
62.9996	45	C2H4Cl+
74.9871	17	C2H2ClN+
75.9948	476	C2H3ClN+
79.0542	49	C6H7+
81.0445	57	C4H5N2+
82.0527	24	C4H6N2+
90.0108	62	C3H5ClN+
91.0542	292	C7H7+
95.0491	23	C6H7O+
103.0543	58	C8H7+
104.062	85	C8H8+
105.0698	123	C8H9+
115.0056	48	C4H4ClN2+
115.0542	147	C9H7+
117.0214	243	C4H6ClN2+
117.0698	999	C9H9+
119.0857	73	C9H11+
130.0294	22	C5H7ClN2+
131.0852	44	C10H11+
132.0933	115	C10H12+
