Mass spectrum: Pilocarpine; LC-ESI-QFT; MS2; CE: 30%; R=15000; [M+H]+
Name: Pilocarpine
Name: (3S,4R)-3-ethyl-4-[(3-methylimidazol-4-yl)methyl]oxolan-2-one
Name: 3-ethyl-4-[(3-methylimidazol-4-yl)methyl]oxolan-2-one
Formula: C11H16N2O2
Exact mass: 208.1211778
SMILES: CCC1C(COC1=O)CC2=CN=CN2C
InChI: InChI=1S/C11H16N2O2/c1-3-10-8(6-15-11(10)14)4-9-5-12-7-13(9)2/h5,7-8,10H,3-4,6H2,1-2H3
Instrument: Exploris 240 Thermo Scientific
Instrument type: LC-ESI-QFT
Ms type: MS2
Ion mode: POSITIVE
Ionization: ESI
Fragmentation mode: HCD
Collision energy: 30 % (nominal)
Resolution: 15000
Column name: XBridge C18 3.5um, 2.1x50mm, Waters
Retention time: 1.369 min
Base peak: 209.128
Precursor m/z: 209.1285
Precursor type: [M+H]+
m/z	relative intensity	assigned
94.0651	24	C6H8N+
95.0603	425	C5H7N2+
95.0729	21	C6H9N+
96.0681	338	C5H8N2+
109.0761	38	C6H9N2+
121.0759	102	C7H9N2+
122.0839	34	C7H10N2+
122.0964	41	C8H12N+
123.0918	10	C7H11N2+
133.0754	10	C8H9N2+
134.0837	12	C8H10N2+
135.0916	31	C8H11N2+
136.1116	16	C9H14N+
148.0992	15	C9H12N2+
163.1229	259	C10H15N2+
191.1177	18	C11H15N2O+
209.1283	999	C11H17N2O2+
