Mass spectrum: Oxazepam; LC-ESI-QFT; MS2; CE: 120%; R=15000; [M+H]+
Name: Oxazepam
Name: 7-chloro-3-hydroxy-5-phenyl-1,3-dihydro-1,4-benzodiazepin-2-one
Formula: C15H11ClN2O2
Exact mass: 286.0509053
SMILES: OC1N=C(C2=CC=CC=C2)C2=CC(Cl)=CC=C2NC1=O
InChI: InChI=1S/C15H11ClN2O2/c16-10-6-7-12-11(8-10)13(9-4-2-1-3-5-9)18-15(20)14(19)17-12/h1-8,15,20H,(H,17,19)
Instrument: Q Exactive Plus
Instrument type: LC-ESI-QFT
Ms type: MS2
Ion mode: POSITIVE
Ionization: ESI
Fragmentation mode: HCD
Collision energy: 120 % (nominal)
Resolution: 15000
Column name: XBridge C18 3.5um, 2.1x50mm, Waters
Retention time: 7.837 min
Base peak: 287.0581
Precursor m/z: 287.0582
Precursor type: [M+H]+
Precursor intensity: 396230952
m/z	relative intensity	assigned
50.0151	84	C4H2+
51.0229	201	C4H3+
53.0021	23	C3HO+
53.0386	304	C4H5+
55.0178	14	C3H3O+
63.0229	74	C5H3+
65.0385	48	C5H5+
66.0464	100	C5H6+
72.9838	49	C3H2Cl+
74.015	33	C6H2+
75.0229	231	C6H3+
77.0385	211	C6H5+
86.9996	27	C4H4Cl+
90.0338	140	C6H4N+
91.0416	121	C6H5N+
93.0573	533	C6H7N+
95.0491	999	C6H7O+
98.9996	146	C5H4Cl+
100.0181	404	C7H2N+
104.0494	641	C7H6N+
105.0447	279	C6H5N2+
110.9996	39	C6H4Cl+
117.0447	35	C7H5N2+
118.0287	135	C7H4NO+
118.0525	302	C7H6N2+
123.9946	30	C6H3ClN+
129.01	156	C6H6ClO+
135.9948	102	C7H3ClN+
138.0109	36	C7H5ClN+
139.0057	159	C6H4ClN2+
150.0465	39	C12H6+
152.0619	125	C12H8+
153.0574	10	C11H7N+
154.0054	51	C7H5ClNO+
163.0056	143	C8H4ClN2+
164.0009	259	C10N2O+
167.073	20	C12H9N+
178.0651	97	C13H8N+
179.0595	39	C12H7N2+
179.0734	26	C13H9N+
193.0759	53	C13H9N2+
194.0838	126	C13H10N2+
195.0918	71	C13H11N2+
205.076	142	C14H9N2+
