Mass spectrum: Bifenazate; LC-ESI-QFT; MS2; CE: 90%; R=15000; [M+H]+
Name: Bifenazate
Name: propan-2-yl N-(2-methoxy-5-phenylanilino)carbamate
Formula: C17H20N2O3
Exact mass: 300.1473925
SMILES: CC(C)OC(=O)NNC1=C(C=CC(=C1)C2=CC=CC=C2)OC
InChI: InChI=1S/C17H20N2O3/c1-12(2)22-17(20)19-18-15-11-14(9-10-16(15)21-3)13-7-5-4-6-8-13/h4-12,18H,1-3H3,(H,19,20)
Instrument: Exploris 240 Thermo Scientific
Instrument type: LC-ESI-QFT
Ms type: MS2
Ion mode: POSITIVE
Ionization: ESI
Fragmentation mode: HCD
Collision energy: 90 % (nominal)
Resolution: 15000
Column name: XBridge C18 3.5um, 2.1x50mm, Waters
Retention time: 9.760 min
Base peak: 198.091
Precursor m/z: 301.1547
Precursor type: [M+H]+
m/z	relative intensity	assigned
65.0386	101	C5H5+
91.0543	26	C7H7+
92.0493	82	C6H6N+
93.0573	147	C6H7N+
115.0541	160	C9H7+
127.054	29	C10H7+
128.062	204	C10H8+
129.0695	25	C10H9+
141.0698	272	C11H9+
143.0857	24	C11H11+
145.0646	24	C10H9O+
151.0539	80	C12H7+
152.0619	999	C12H8+
153.0571	29	C11H7N+
153.0699	316	C12H9+
154.065	44	C11H8N+
156.0806	577	C11H10N+
166.0647	34	C12H8N+
167.0727	485	C12H9N+
168.0805	100	C12H10N+
169.0646	78	C12H9O+
169.0884	159	C12H11N+
170.0966	79	C12H12N+
179.0604	53	C12H7N2+
184.0755	311	C12H10NO+
