Mass spectrum: Chlorpyrifos-methyl; LC-ESI-QFT; MS2; CE: 120%; R=15000; [M+H]+
Name: Chlorpyrifos-methyl
Name: dimethoxy-sulfanylidene-(3,5,6-trichloropyridin-2-yl)oxy-lambda5-phosphane
Formula: C7H7Cl3NO3PS
Exact mass: 320.8949838
SMILES: COP(=S)(OC)OC1=NC(Cl)=C(Cl)C=C1Cl
InChI: InChI=1S/C7H7Cl3NO3PS/c1-12-15(16,13-2)14-7-5(9)3-4(8)6(10)11-7/h3H,1-2H3
Instrument: Q Exactive Plus
Instrument type: LC-ESI-QFT
Ms type: MS2
Ion mode: POSITIVE
Ionization: ESI
Fragmentation mode: HCD
Collision energy: 120 % (nominal)
Resolution: 15000
Column name: XBridge C18 3.5um, 2.1x50mm, Waters
Retention time: 12.587 min
Base peak: 321.9024
Precursor m/z: 321.9023
Precursor type: [M+H]+
Precursor intensity: 36988659.53
m/z	relative intensity	assigned
59.9664	185	COS+
61.9792	42	CHClN+
62.0184	110	C2H6S+
62.9994	164	CH4OP+
78.9943	999	CH4O2P+
83.9762	36	C4HCl+
93.01	159	C2H6O2P+
97.0047	47	CH6O3P+
97.979	43	C3HNOP+
102.9404	37	C3ClS+
106.945	298	C3HCl2+
108.9715	164	C5ClN+
115.9482	81	C4HClS+
118.9447	69	C3HClOP+
141.9512	64	C5HClNS+
