Mass spectrum: Bromfenac; LC-ESI-QFT; MS2; CE: 20%; R=15000; [M+H]+
Name: Bromfenac
Name: 2-[2-azanyl-3-(4-bromophenyl)carbonyl-phenyl]ethanoic acid
Formula: C15H12BrNO3
Exact mass: 333.0000553
SMILES: C1=CC(=C(C(=C1)C(=O)C2=CC=C(C=C2)Br)N)CC(=O)O
InChI: InChI=1S/C15H12BrNO3/c16-11-6-4-9(5-7-11)15(20)12-3-1-2-10(14(12)17)8-13(18)19/h1-7H,8,17H2,(H,18,19)
Instrument: Exploris 240 Thermo Scientific
Instrument type: LC-ESI-QFT
Ms type: MS2
Ion mode: POSITIVE
Ionization: ESI
Fragmentation mode: HCD
Collision energy: 20 % (nominal)
Resolution: 15000
Column name: XBridge C18 3.5um, 2.1x50mm, Waters
Retention time: 9.875 min
Base peak: 334.007
Precursor m/z: 334.0073
Precursor type: [M+H]+
m/z	relative intensity	assigned
160.0393	30	C9H6NO2+
182.9439	97	C7H4BrO+
288.0018	999	C14H11BrNO+
315.9968	518	C15H11BrNO2+
334.0074	165	C15H13BrNO3+
