Mass spectrum: Acyclovir; LC-ESI-QFT; MS2; CE: 120%; R=17500; [M+H]+
Name: Acyclovir
Name: 2-amino-9-(2-hydroxyethoxymethyl)-3H-purin-6-one
Formula: C8H11N5O3
Exact mass: 225.0861892
SMILES: C1=NC2=C(N1COCCO)N=C(NC2=O)N
InChI: InChI=1S/C8H11N5O3/c9-8-11-6-5(7(15)12-8)10-3-13(6)4-16-2-1-14/h3,14H,1-2,4H2,(H3,9,11,12,15)
Instrument: Exploris 240 Orbitrap Thermo Scientific
Instrument type: LC-ESI-QFT
Ms type: MS2
Ion mode: POSITIVE
Ionization: ESI
Fragmentation mode: HCD
Collision energy: 120 % (nominal)
Resolution: 17500
Column name: XBridge C18 3.5um, 2.1x50mm, Waters
Retention time: 1.177 min
Base peak: 144.9877
Precursor m/z: 226.0935
Precursor type: [M+H]+
m/z	relative intensity	assigned
53.0134	33	C2HN2+
55.0291	376	C2H3N2+
65.0134	34	C3HN2+
67.0292	39	C3H3N2+
68.013	31	C3H2NO+
80.0242	241	C3H2N3+
82.0399	203	C3H4N3+
93.0082	107	C4HN2O+
107.0352	153	C4H3N4+
109.051	38	C4H5N4+
110.0348	528	C4H4N3O+
128.0456	54	C4H6N3O2+
134.0465	46	C5H4N5+
135.0301	999	C5H3N4O+
152.0571	49	C5H6N5O+
153.0408	267	C5H5N4O2+
