Mass spectrum: Fluralaner; LC-ESI-QFT; MS2; CE: 15%; R=17500; [M-H]-
Name: Fluralaner
Name: 4-[5-(3,5-dichlorophenyl)-5-(trifluoromethyl)-4H-1,2-oxazol-3-yl]-2-methyl-N-[2-oxo-2-(2,2,2-trifluoroethylamino)ethyl]benzamide
Formula: C22H17Cl2F6N3O3
Exact mass: 555.055116084
SMILES: CC1=C(C=CC(=C1)C2=NOC(C2)(C3=CC(=CC(=C3)Cl)Cl)C(F)(F)F)C(=O)NCC(=O)NCC(F)(F)F
InChI: InChI=1S/C22H17Cl2F6N3O3/c1-11-4-12(2-3-16(11)19(35)31-9-18(34)32-10-21(25,26)27)17-8-20(36-33-17,22(28,29)30)13-5-14(23)7-15(24)6-13/h2-7H,8-10H2,1H3,(H,31,35)(H,32,34)
Instrument: Exploris 240 Orbitrap Thermo Scientific
Instrument type: LC-ESI-QFT
Ms type: MS2
Ion mode: NEGATIVE
Ionization: ESI
Fragmentation mode: HCD
Collision energy: 15 % (nominal)
Resolution: 17500
Column name: XBridge C18 3.5um, 2.1x50mm, Waters
Retention time: 13.362 min
Base peak: 311.1686
Precursor m/z: 554.0478
Precursor type: [M-H]-
m/z	relative intensity	assigned
113.0158	2	C4H2FN2O-
115.0314	1	C4H4FN2O-
471.0297	1	C21H13Cl2F4N2O2-
494.0297	19	C22H13Cl2F3N3O3-
514.0354	27	C22H14Cl2F4N3O3-
534.0416	344	C22H15Cl2F5N3O3-
554.048	999	C22H16Cl2F6N3O3-
