Mass spectrum: Diazepam; LC-ESI-QFT; MS2; CE: 150%; R=15000; [M+H]+
Name: Diazepam
Name: 7-chloro-1-methyl-5-phenyl-3H-1,4-benzodiazepin-2-one
Formula: C16H13ClN2O
Exact mass: 284.0716407
SMILES: CN1C2=C(C=C(Cl)C=C2)C(=NCC1=O)C1=CC=CC=C1
InChI: InChI=1S/C16H13ClN2O/c1-19-14-8-7-12(17)9-13(14)16(18-10-15(19)20)11-5-3-2-4-6-11/h2-9H,10H2,1H3
Instrument: Q Exactive Plus
Instrument type: LC-ESI-QFT
Ms type: MS2
Ion mode: POSITIVE
Ionization: ESI
Fragmentation mode: HCD
Collision energy: 150 % (nominal)
Resolution: 15000
Column name: XBridge C18 3.5um, 2.1x50mm, Waters
Retention time: 8.885 min
Base peak: 285.079
Precursor m/z: 285.0789
Precursor type: [M+H]+
Precursor intensity: 504649844.09
m/z	relative intensity	assigned
50.0151	47	C4H2+
51.023	111	C4H3+
53.0021	12	C3HO+
53.0386	50	C4H5+
58.0287	21	C2H4NO+
62.0151	40	C5H2+
63.0229	273	C5H3+
64.0307	21	C5H4+
65.0386	290	C5H5+
66.0464	20	C5H6+
72.9839	111	C3H2Cl+
74.0152	28	C6H2+
75.0229	148	C6H3+
76.0181	12	C5H2N+
76.0307	12	C6H4+
77.0386	54	C6H5+
78.0338	11	C5H4N+
78.0465	29	C6H6+
84.9839	15	C4H2Cl+
88.0182	11	C6H2N+
88.0307	10	C7H4+
89.0386	999	C7H5+
90.0464	237	C7H6+
91.0542	331	C7H7+
95.0491	153	C6H7O+
96.9839	13	C5H2Cl+
98.9996	149	C5H4Cl+
100.0182	157	C7H2N+
102.0339	41	C7H4N+
104.0494	77	C7H6N+
105.0449	44	C6H5N2+
112.0076	19	C6H5Cl+
114.0339	18	C8H4N+
115.0418	13	C8H5N+
115.0543	53	C9H7+
116.0494	123	C8H6N+
117.0573	135	C8H7N+
118.0288	38	C7H4NO+
118.0651	101	C8H8N+
122.9996	51	C7H4Cl+
125.0153	42	C7H6Cl+
129.0099	25	C6H6ClO+
134.0599	18	C8H8NO+
135.995	21	C7H3ClN+
138.0104	52	C7H5ClN+
139.0056	29	C6H4ClN2+
139.0544	59	C11H7+
140.0498	16	C10H6N+
142.0524	20	C9H6N2+
143.0603	41	C9H7N2+
150.0464	45	C12H6+
152.0621	179	C12H8+
153.0703	18	C12H9+
154.0055	11	C7H5ClNO+
163.0058	29	C8H4ClN2+
163.0542	102	C13H7+
164.0009	55	C10N2O+
164.0619	52	C13H8+
165.0699	352	C13H9+
166.065	10	C12H8N+
168.0566	36	C12H8O+
169.0647	98	C12H9O+
176.0619	46	C14H8+
177.0573	66	C13H7N+
178.0651	143	C13H8N+
179.0599	25	C12H7N2+
179.0731	88	C13H9N+
180.0808	23	C13H10N+
190.0653	48	C14H8N+
191.0734	37	C14H9N+
192.0808	17	C14H10N+
193.089	11	C14H11N+
205.0759	97	C14H9N2+
206.0837	18	C14H10N2+
211.0628	16	C10H12ClN2O+
213.0334	15	C16H5O+
