Mass spectrum: Sulfentrazone; LC-ESI-QFT; MS2; CE: 30%; R=15000; [M-H]-
Name: Sulfentrazone
Name: N-[2,4-dichloro-5-[4-(difluoromethyl)-3-methyl-5-oxo-1,2,4-triazol-1-yl]phenyl]methanesulfonamide
Formula: C11H10Cl2F2N4O3S
Exact mass: 385.981873
SMILES: CC1=NN(C(=O)N1C(F)F)C1=CC(NS(C)(=O)=O)=C(Cl)C=C1Cl
InChI: InChI=1S/C11H10Cl2F2N4O3S/c1-5-16-19(11(20)18(5)10(14)15)9-4-8(17-23(2,21)22)6(12)3-7(9)13/h3-4,10,17H,1-2H3
Instrument: Q Exactive Plus
Instrument type: LC-ESI-QFT
Ms type: MS2
Ion mode: NEGATIVE
Ionization: ESI
Fragmentation mode: HCD
Collision energy: 30 % (nominal)
Resolution: 15000
Column name: XBridge C18 3.5um, 2.1x50mm, Waters
Retention time: 6.498 min
Base peak: 384.9746
Precursor m/z: 384.9746
Precursor type: [M-H]-
Precursor intensity: 116507073.09
m/z	relative intensity	assigned
63.9624	17	O2S-
76.9703	22	CHO2S-
305.9893	147	C10H6Cl2F2N4O-
306.9972	640	C10H7Cl2F2N4O-
334.978	49	C10H9Cl2N4O3S-
384.9748	999	C11H9Cl2F2N4O3S-
