Mass spectrum: 3-Hydroxymethylmefenamic acid; LC-ESI-QFT; MS2; CE: 60%; R=17500; [M-H]-
Name: 3-Hydroxymethylmefenamic acid
Name: 3-Hydroxymethyl Mefenamic Acid
Name: 2-[3-(hydroxymethyl)-2-methylanilino]benzoic acid
Formula: C15H15NO3
Exact mass: 257.1051933
SMILES: CC1=C(C=CC=C1NC2=CC=CC=C2C(=O)O)CO
InChI: InChI=1S/C15H15NO3/c1-10-11(9-17)5-4-8-13(10)16-14-7-3-2-6-12(14)15(18)19/h2-8,16-17H,9H2,1H3,(H,18,19)
Instrument: Exploris 240 Orbitrap Thermo Scientific
Instrument type: LC-ESI-QFT
Ms type: MS2
Ion mode: NEGATIVE
Ionization: ESI
Fragmentation mode: HCD
Collision energy: 60 % (nominal)
Resolution: 17500
Column name: XBridge C18 3.5um, 2.1x50mm, Waters
Retention time: 8.524 min
Base peak: 256.0978
Precursor m/z: 256.0979
Precursor type: [M-H]-
m/z	relative intensity	assigned
92.0506	102	C6H6N-
165.071	43	C13H9-
166.0661	42	C12H8N-
168.0815	6	C12H10N-
179.0738	12	C13H9N-
180.0818	138	C13H10N-
182.0975	999	C13H12N-
194.0969	9	C14H12N-
210.0931	18	C14H12NO-
212.1077	31	C14H14NO-
