Mass spectrum: Fenpropathrin; LC-ESI-QFT; MS2; CE: 150%; R=15000; [M+H]+
Name: Fenpropathrin
Name: [cyano-(3-phenoxyphenyl)methyl] 2,2,3,3-tetramethylcyclopropane-1-carboxylate
Formula: C22H23NO3
Exact mass: 349.1677936
SMILES: CC1(C(C1(C)C)C(=O)OC(C#N)C2=CC(=CC=C2)OC3=CC=CC=C3)C
InChI: InChI=1S/C22H23NO3/c1-21(2)19(22(21,3)4)20(24)26-18(14-23)15-9-8-12-17(13-15)25-16-10-6-5-7-11-16/h5-13,18-19H,1-4H3
Instrument: Q Exactive Plus
Instrument type: LC-ESI-QFT
Ms type: MS2
Ion mode: POSITIVE
Ionization: ESI
Fragmentation mode: HCD
Collision energy: 150 % (nominal)
Resolution: 15000
Column name: XBridge C18 3.5um, 2.1x50mm, Waters
Retention time: 15.161 min
Base peak: 350.1751
Precursor m/z: 350.1751
Precursor type: [M+H]+
Precursor intensity: 152232239.02
m/z	relative intensity	assigned
51.0228	47	C4H3+
53.0385	200	C4H5+
55.0542	999	C4H7+
57.0699	693	C4H9+
65.0385	275	C5H5+
67.0542	697	C5H7+
79.054	76	C6H7+
95.0491	425	C6H7O+
