Mass spectrum: Hexythiazox; LC-ESI-QFT; MS2; CE: 90%; R=15000; [M+H]+
Name: Hexythiazox
Name: 5-(4-chlorophenyl)-N-cyclohexyl-4-methyl-2-oxo-1,3-thiazolidine-3-carboxamide
Formula: C17H21ClN2O2S
Exact mass: 352.1012266
SMILES: CC1C(SC(=O)N1C(=O)NC2CCCCC2)C3=CC=C(C=C3)Cl
InChI: InChI=1S/C17H21ClN2O2S/c1-11-15(12-7-9-13(18)10-8-12)23-17(22)20(11)16(21)19-14-5-3-2-4-6-14/h7-11,14-15H,2-6H2,1H3,(H,19,21)
Instrument: Exploris 240 Thermo Scientific
Instrument type: LC-ESI-QFT
Ms type: MS2
Ion mode: POSITIVE
Ionization: ESI
Fragmentation mode: HCD
Collision energy: 90 % (nominal)
Resolution: 15000
Column name: XBridge C18 3.5um, 2.1x50mm, Waters
Retention time: 14.150 min
Base peak: 353.1083
Precursor m/z: 353.1085
Precursor type: [M+H]+
m/z	relative intensity	assigned
55.0542	70	C4H7+
56.0494	103	C3H6N+
83.0852	16	C6H11+
91.0542	21	C7H7+
115.0541	673	C9H7+
116.0619	999	C9H8+
117.0572	56	C8H7N+
118.0652	31	C8H8N+
125.0152	53	C7H6Cl+
130.0652	15	C9H8N+
132.0807	102	C9H10N+
133.0884	209	C9H11N+
140.0496	46	C10H6N+
141.0575	64	C10H7N+
143.0602	46	C9H7N2+
151.0307	138	C9H8Cl+
153.0338	111	C8H8ClN+
159.0679	55	C10H9NO+
176.026	33	C10H7ClN+
