Mass spectrum: Picloram; LC-ESI-QFT; MS2; CE: 75%; R=15000; [M+H]+
Name: Picloram
Name: 4-amino-3,5,6-trichloropyridine-2-carboxylic acid
Formula: C6H3Cl3N2O2
Exact mass: 239.9260104
SMILES: C1(=C(C(=NC(=C1Cl)Cl)C(=O)O)Cl)N
InChI: InChI=1S/C6H3Cl3N2O2/c7-1-3(10)2(8)5(9)11-4(1)6(12)13/h(H2,10,11)(H,12,13)
Instrument: Exploris 240 Thermo Scientific
Instrument type: LC-ESI-QFT
Ms type: MS2
Ion mode: POSITIVE
Ionization: ESI
Fragmentation mode: HCD
Collision energy: 75 % (nominal)
Resolution: 15000
Column name: XBridge C18 3.5um, 2.1x50mm, Waters
Retention time: 3.468 min
Base peak: 240.9333
Precursor m/z: 240.9333
Precursor type: [M+H]+
m/z	relative intensity	assigned
106.945	16	C3HCl2+
131.9403	49	C4Cl2N+
133.956	25	C4H2Cl2N+
140.9061	289	C3Cl3+
158.9509	26	C5HCl2N2+
159.9589	413	C5H2Cl2N2+
167.9169	999	C4HCl3N+
194.9279	379	C5H2Cl3N2+
212.9384	986	C5H4Cl3N2O+
