Mass spectrum: Diuron; LC-ESI-QFT; MS2; CE: 15%; R=15000; [M-H]-
Name: Diuron
Name: 3-(3,4-dichlorophenyl)-1,1-dimethylurea
Formula: C9H10Cl2N2O
Exact mass: 232.0170183
SMILES: CN(C)C(=O)NC1=CC(Cl)=C(Cl)C=C1
InChI: InChI=1S/C9H10Cl2N2O/c1-13(2)9(14)12-6-3-4-7(10)8(11)5-6/h3-5H,1-2H3,(H,12,14)
Instrument: Q Exactive Plus
Instrument type: LC-ESI-QFT
Ms type: MS2
Ion mode: NEGATIVE
Ionization: ESI
Fragmentation mode: HCD
Collision energy: 15 % (nominal)
Resolution: 15000
Column name: XBridge C18 3.5um, 2.1x50mm, Waters
Retention time: 7.860 min
Base peak: 231.0096
Precursor m/z: 231.0097
Precursor type: [M-H]-
Precursor intensity: 82422120.05
m/z	relative intensity	assigned
159.9726	25	C6H4Cl2N-
185.9518	106	C7H2Cl2NO-
231.0096	999	C9H9Cl2N2O-
