Mass spectrum: Entacapone; LC-ESI-QFT; MS2; CE: 60%; R=15000; [M+H]+
Name: Entacapone
Name: 2-cyano-3-(3,4-dihydroxy-5-nitrophenyl)-N,N-diethylprop-2-enamide
Name: (E)-2-cyano-N,N-diethyl-3-[3-nitro-4,5-bis(oxidanyl)phenyl]prop-2-enamide
Formula: C14H15N3O5
Exact mass: 305.1011706
SMILES: CCN(CC)C(=O)C(=CC1=CC(=C(C(=C1)O)O)[N+](=O)[O-])C#N
InChI: InChI=1S/C14H15N3O5/c1-3-16(4-2)14(20)10(8-15)5-9-6-11(17(21)22)13(19)12(18)7-9/h5-7,18-19H,3-4H2,1-2H3
Instrument: Q Exactive
Instrument type: LC-ESI-QFT
Ms type: MS2
Ion mode: POSITIVE
Ionization: ESI
Fragmentation mode: HCD
Collision energy: 60 % (nominal)
Resolution: 15000
Column name: XBridge C18 3.5um, 2.1x50mm, Waters
Retention time: 6.195 min
Base peak: 306.1085
Precursor m/z: 306.1084
Precursor type: [M+H]+
Precursor intensity: 547436965.48
m/z	relative intensity	assigned
63.0229	44	C5H3+
68.0131	212	C3H2NO+
71.0604	161	C3H7N2+
72.0444	454	C3H6NO+
72.0808	165	C4H10N+
74.0964	210	C4H12N+
76.0182	365	C5H2N+
77.0259	46	C5H3N+
78.0338	80	C5H4N+
80.0131	151	C4H2NO+
88.0182	522	C6H2N+
96.0447	43	C5H6NO+
99.0917	260	C5H11N2+
100.0757	115	C5H10NO+
101.026	219	C7H3N+
103.0291	684	C6H3N2+
103.0414	73	C7H5N+
104.0131	506	C6H2NO+
106.0287	115	C6H4NO+
115.0291	202	C7H3N2+
116.013	87	C7H2NO+
118.0287	85	C7H4NO+
119.0367	149	C7H5NO+
121.0395	111	C6H5N2O+
129.0209	397	C8H3NO+
130.0395	33	C7H4N3+
131.0241	428	C7H3N2O+
144.0319	85	C8H4N2O+
147.0316	247	C8H5NO2+
157.016	99	C9H3NO2+
158.024	38	C9H4NO2+
159.0189	636	C8H3N2O2+
159.0317	329	C9H5NO2+
160.0269	81	C8H4N2O2+
163.0505	44	C8H7N2O2+
168.029	100	C7H6NO4+
170.011	999	C9H2N2O2+
171.0188	172	C9H3N2O2+
175.026	103	C9H5NO3+
185.0104	102	C10H3NO3+
186.1022	49	C11H12N3+
187.0136	76	C9H3N2O3+
203.0214	183	C10H5NO4+
205.0248	127	C9H5N2O4+
