Mass spectrum: Drotaverine; LC-ESI-QFT; MS2; CE: 60%; R=17500; [M+H]+
Name: Drotaverine
Name: 1-(3,4-Diethoxybenzylidene)-6,7-diethoxy-1,2,3,4-tetrahydroisoquinoline
Name: 1-[(3,4-diethoxyphenyl)methylidene]-6,7-diethoxy-3,4-dihydro-2H-isoquinoline
Formula: C24H31NO4
Exact mass: 397.225308472
SMILES: CCOC1=C(C=C(C=C1)C=C2C3=CC(=C(C=C3CCN2)OCC)OCC)OCC
InChI: InChI=1S/C24H31NO4/c1-5-26-21-10-9-17(14-22(21)27-6-2)13-20-19-16-24(29-8-4)23(28-7-3)15-18(19)11-12-25-20/h9-10,13-16,25H,5-8,11-12H2,1-4H3
Instrument: Exploris 240 Orbitrap Thermo Scientific
Instrument type: LC-ESI-QFT
Ms type: MS2
Ion mode: POSITIVE
Ionization: ESI
Fragmentation mode: HCD
Collision energy: 60 % (nominal)
Resolution: 17500
Column name: XBridge C18 3.5um, 2.1x50mm, Waters
Retention time: 7.550 min
Base peak: 398.2321
Precursor m/z: 398.2326
Precursor type: [M+H]+
m/z	relative intensity	assigned
137.0593	22	C8H9O2+
148.0755	27	C9H10NO+
163.0622	15	C9H9NO2+
190.086	11	C11H12NO2+
252.1024	12	C16H14NO2+
253.1099	25	C16H15NO2+
254.1183	39	C16H16NO2+
267.1259	17	C17H17NO2+
268.0965	23	C16H14NO3+
268.133	19	C17H18NO2+
269.1044	171	C16H15NO3+
279.1262	15	C18H17NO2+
280.1332	17	C18H18NO2+
281.1038	14	C17H15NO3+
282.1123	268	C17H16NO3+
283.1199	19	C17H17NO3+
284.1275	34	C17H18NO3+
285.1007	53	C16H15NO4+
294.1114	22	C18H16NO3+
295.1202	29	C18H17NO3+
296.0909	14	C17H14NO4+
296.1278	82	C18H18NO3+
297.0987	58	C17H15NO4+
297.1349	14	C18H19NO3+
298.107	375	C17H16NO4+
308.1278	23	C19H18NO3+
310.1069	134	C18H16NO4+
310.1446	38	C19H20NO3+
311.114	21	C18H17NO4+
312.1225	90	C18H18NO4+
313.1308	96	C18H19NO4+
322.1427	18	C20H20NO3+
326.1383	999	C19H20NO4+
339.1832	10	C21H25NO3+
340.1543	195	C20H22NO4+
341.1619	108	C20H23NO4+
342.1697	141	C20H24NO4+
354.17	886	C21H24NO4+
368.186	123	C22H26NO4+
370.2013	210	C22H28NO4+
398.2317	55	C24H32NO4+
