Mass spectrum: Isavuconazole; LC-ESI-QFT; MS2; CE: 70%; R=15000; [M+H]+
Name: Isavuconazole
Name: 4-[2-[(2R,3R)-3-[2,5-bis(fluoranyl)phenyl]-3-oxidanyl-4-(1,2,4-triazol-1-yl)butan-2-yl]-1,3-thiazol-4-yl]benzenecarbonitrile
Name: 4-[2-[3-(2,5-difluorophenyl)-3-hydroxy-4-(1,2,4-triazol-1-yl)butan-2-yl]-1,3-thiazol-4-yl]benzonitrile
Formula: C22H17F2N5OS
Exact mass: 437.1121876
SMILES: CC(C1=NC(=CS1)C2=CC=C(C=C2)C#N)C(CN3C=NC=N3)(C4=C(C=CC(=C4)F)F)O
InChI: InChI=1S/C22H17F2N5OS/c1-14(21-28-20(10-31-21)16-4-2-15(9-25)3-5-16)22(30,11-29-13-26-12-27-29)18-8-17(23)6-7-19(18)24/h2-8,10,12-14,30H,11H2,1H3
Instrument: Exploris 240 Thermo Scientific
Instrument type: LC-ESI-QFT
Ms type: MS2
Ion mode: POSITIVE
Ionization: ESI
Fragmentation mode: HCD
Collision energy: 70 % (nominal)
Resolution: 15000
Column name: XBridge C18 3.5um, 2.1x50mm, Waters
Retention time: 10.216 min
Base peak: 438.1191
Precursor m/z: 438.1195
Precursor type: [M+H]+
m/z	relative intensity	assigned
51.0041	62	CHF2+
51.0231	47	C4H3+
54.0339	56	C3H4N+
57.0135	338	C3H2F+
63.0229	218	C5H3+
68.9794	45	C3HS+
70.04	395	C2H4N3+
75.004	102	C3HF2+
75.0231	24	C6H3+
77.0198	176	C3H3F2+
81.0135	178	C5H2F+
82.0401	225	C3H4N3+
83.0292	76	C5H4F+
89.0386	794	C7H5+
95.0492	86	C6H7O+
100.0307	17	C8H4+
101.0198	999	C5H3F2+
107.0291	700	C7H4F+
114.0343	32	C8H4N+
115.042	55	C8H5N+
116.0495	747	C8H6N+
127.0351	804	C7H5F2+
132.0031	29	C8H4S+
141.0259	23	C6H3F2N2+
159.0139	126	C9H5NS+
160.0222	36	C9H6NS+
161.017	30	C8H5N2S+
202.0778	439	C16H10+
203.0831	139	C6H13N5OS+
