Mass spectrum: Pramiracetam; LC-ESI-QFT; MS2; CE: 60%; R=17500; [M+H]+
Name: Pramiracetam
Name: N-[2-[di(propan-2-yl)amino]ethyl]-2-(2-oxopyrrolidin-1-yl)acetamide
Formula: C14H27N3O2
Exact mass: 269.210327104
SMILES: CC(C)N(CCNC(=O)CN1CCCC1=O)C(C)C
InChI: InChI=1S/C14H27N3O2/c1-11(2)17(12(3)4)9-7-15-13(18)10-16-8-5-6-14(16)19/h11-12H,5-10H2,1-4H3,(H,15,18)
Instrument: Exploris 240 Orbitrap Thermo Scientific
Instrument type: LC-ESI-QFT
Ms type: MS2
Ion mode: POSITIVE
Ionization: ESI
Fragmentation mode: HCD
Collision energy: 60 % (nominal)
Resolution: 17500
Column name: XBridge C18 3.5um, 2.1x50mm, Waters
Retention time: 1.856 min
Base peak: 270.2173
Precursor m/z: 270.2176
Precursor type: [M+H]+
m/z	relative intensity	assigned
69.0336	5	C4H5O+
70.065	34	C4H8N+
86.0963	33	C5H12N+
98.06	999	C5H8NO+
102.1274	15	C6H16N+
103.1229	5	C5H15N2+
125.0707	10	C6H9N2O+
126.0552	17	C6H8NO2+
128.1432	40	C8H18N+
168.1136	10	C8H14N3O+
169.0971	500	C8H13N2O2+
210.1602	4	C11H20N3O+
270.2173	8	C14H28N3O2+
