Mass spectrum: tert-Butylacrylamide; LC-ESI-QFT; MS2; CE: 150%; R=15000; [M+H]+
Name: tert-Butylacrylamide
Name: N-Tert-butylacrylamide
Name: N-tert-butylprop-2-enamide
Formula: C7H13NO
Exact mass: 127.099714
SMILES: CC(C)(C)NC(=O)C=C
InChI: InChI=1S/C7H13NO/c1-5-6(9)8-7(2,3)4/h5H,1H2,2-4H3,(H,8,9)
Instrument: Exploris 240 Thermo Scientific
Instrument type: LC-ESI-QFT
Ms type: MS2
Ion mode: POSITIVE
Ionization: ESI
Fragmentation mode: HCD
Collision energy: 150 % (nominal)
Resolution: 15000
Column name: XBridge C18 3.5um, 2.1x50mm, Waters
Retention time: 3.893 min
Base peak: 128.1068
Precursor m/z: 128.107
Precursor type: [M+H]+
m/z	relative intensity	assigned
41.0386	37	C3H5+
44.0131	60	CH2NO+
44.0494	12	C2H6N+
54.0338	60	C3H4N+
55.0178	999	C3H3O+
57.0699	85	C4H9+
72.0444	49	C3H6NO+
