Mass spectrum: N-Desmethylrosuvastatin; LC-ESI-QFT; MS2; CE: 30%; R=17500; [M+H]+
Name: N-Desmethylrosuvastatin
Name: 7-[4-(4-fluorophenyl)-2-(methanesulfonamido)-6-propan-2-ylpyrimidin-5-yl]-3,5-dihydroxyhept-6-enoic acid
Formula: C21H26FN3O6S
Exact mass: 467.1526348
SMILES: CC(C)C1=NC(=NC(=C1C=CC(CC(CC(=O)O)O)O)C2=CC=C(C=C2)F)NS(=O)(=O)C
InChI: InChI=1S/C21H26FN3O6S/c1-12(2)19-17(9-8-15(26)10-16(27)11-18(28)29)20(13-4-6-14(22)7-5-13)24-21(23-19)25-32(3,30)31/h4-9,12,15-16,26-27H,10-11H2,1-3H3,(H,28,29)(H,23,24,25)
Instrument: Exploris 240 Orbitrap Thermo Scientific
Instrument type: LC-ESI-QFT
Ms type: MS2
Ion mode: POSITIVE
Ionization: ESI
Fragmentation mode: HCD
Collision energy: 30 % (nominal)
Resolution: 17500
Column name: XBridge C18 3.5um, 2.1x50mm, Waters
Retention time: 5.375 min
Base peak: 468.1593
Precursor m/z: 468.1599
Precursor type: [M+H]+
m/z	relative intensity	assigned
89.0233	3	C3H5O3+
117.0426	1	C4H7NO3+
256.1242	5	C15H15FN3+
257.132	3	C12H21N2O2S+
258.1398	10	C12H22N2O2S+
320.088	6	C20H16O2S+
362.1333	38	C18H21FN3O2S+
386.1344	3	C19H20N3O6+
390.1813	9	C20H25FN3O4+
406.1593	6	C20H25FN3O3S+
408.1382	37	C19H23FN3O4S+
432.139	62	C21H23FN3O4S+
450.1482	20	C21H25FN3O5S+
468.1596	999	C21H27FN3O6S+
