Mass spectrum: Imidacloprid; LC-ESI-QFT; MS2; CE: 60%; R=15000; [M-H]-
Name: Imidacloprid
Name: N-[1-[(6-chloro-3-pyridinyl)methyl]-4,5-dihydroimidazol-2-yl]nitramide
Name: N-[1-[(6-chloropyridin-3-yl)methyl]-4,5-dihydroimidazol-2-yl]nitramide
Formula: C9H10ClN5O2
Exact mass: 255.0523022
SMILES: [O-][N+](=O)\N=C1/NCCN1CC1=CN=C(Cl)C=C1
InChI: InChI=1S/C9H10ClN5O2/c10-8-2-1-7(5-12-8)6-14-4-3-11-9(14)13-15(16)17/h1-2,5H,3-4,6H2,(H,11,13)
Instrument: Q Exactive Plus
Instrument type: LC-ESI-QFT
Ms type: MS2
Ion mode: NEGATIVE
Ionization: ESI
Fragmentation mode: HCD
Collision energy: 60 % (nominal)
Resolution: 15000
Column name: XBridge C18 3.5um, 2.1x50mm, Waters
Retention time: 4.068 min
Base peak: 254.0451
Precursor m/z: 254.045
Precursor type: [M-H]-
Precursor intensity: 40930305.92
m/z	relative intensity	assigned
67.0302	30	C3H3N2-
69.0094	23	C2HN2O-
85.9996	999	CN3O2-
117.046	34	C7H5N2-
153.0224	83	C7H6ClN2-
