Mass spectrum: Eriodictyol; LC-ESI-QFT; MS2; CE: 30%; R=17500; [M-H]-
Name: Eriodictyol
Name: (+/-)-Eriodictyol
Name: 2-(3,4-dihydroxyphenyl)-5,7-dihydroxy-2,3-dihydrochromen-4-one
Formula: C15H12O6
Exact mass: 288.0633881
SMILES: C1C(OC2=CC(=CC(=C2C1=O)O)O)C3=CC(=C(C=C3)O)O
InChI: InChI=1S/C15H12O6/c16-8-4-11(19)15-12(20)6-13(21-14(15)5-8)7-1-2-9(17)10(18)3-7/h1-5,13,16-19H,6H2
Instrument: Exploris 240 Orbitrap Thermo Scientific
Instrument type: LC-ESI-QFT
Ms type: MS2
Ion mode: NEGATIVE
Ionization: ESI
Fragmentation mode: HCD
Collision energy: 30 % (nominal)
Resolution: 17500
Column name: XBridge C18 3.5um, 2.1x50mm, Waters
Retention time: 5.348 min
Base peak: 287.056
Precursor m/z: 287.0561
Precursor type: [M-H]-
m/z	relative intensity	assigned
83.014	3	C4H3O2-
107.0139	19	C6H3O2-
109.0293	10	C6H5O2-
125.0244	35	C6H5O3-
135.0452	408	C8H7O2-
151.0037	999	C7H3O4-
161.0241	7	C9H5O3-
165.0194	4	C8H5O4-
177.0192	4	C9H5O4-
269.0453	7	C15H9O5-
287.0563	85	C15H11O6-
