Mass spectrum: Nevirapine; LC-ESI-QFT; MS2; CE: 45%; R=17500; [M+H]+
Name: Nevirapine
Name: 2-cyclopropyl-7-methyl-2,4,9,15-tetrazatricyclo[9.4.0.03,8]pentadeca-1(11),3,5,7,12,14-hexaen-10-one
Formula: C15H14N4O
Exact mass: 266.1167611
SMILES: CC1=C2C(=NC=C1)N(C3=C(C=CC=N3)C(=O)N2)C4CC4
InChI: InChI=1S/C15H14N4O/c1-9-6-8-17-14-12(9)18-15(20)11-3-2-7-16-13(11)19(14)10-4-5-10/h2-3,6-8,10H,4-5H2,1H3,(H,18,20)
Instrument: Exploris 240 Orbitrap Thermo Scientific
Instrument type: LC-ESI-QFT
Ms type: MS2
Ion mode: POSITIVE
Ionization: ESI
Fragmentation mode: HCD
Collision energy: 45 % (nominal)
Resolution: 17500
Column name: XBridge C18 3.5um, 2.1x50mm, Waters
Retention time: 4.746 min
Base peak: 267.1236
Precursor m/z: 267.124
Precursor type: [M+H]+
m/z	relative intensity	assigned
80.0495	14	C5H6N+
107.0604	38	C6H7N2+
108.068	10	C6H8N2+
124.063	3	C6H8N2O+
125.0709	4	C6H9N2O+
143.0599	6	C9H7N2+
144.0679	12	C9H8N2+
159.0548	3	C9H7N2O+
160.0632	9	C9H8N2O+
161.0711	34	C9H9N2O+
184.0864	4	C11H10N3+
210.0666	4	C12H8N3O+
210.0892	4	C12H10N4+
211.0973	4	C12H11N4+
212.0824	4	C12H10N3O+
225.0778	7	C12H9N4O+
226.0849	279	C12H10N4O+
227.0928	48	C12H11N4O+
238.0855	5	C13H10N4O+
239.0928	12	C13H11N4O+
239.1293	18	C14H15N4+
249.1136	26	C15H13N4+
250.0979	8	C15H12N3O+
252.1008	19	C14H12N4O+
267.1241	999	C15H15N4O+
