Mass spectrum: Diazepam; LC-ESI-QFT; MS2; CE: 30%; R=15000; [M+H]+
Name: Diazepam
Name: 7-chloro-1-methyl-5-phenyl-3H-1,4-benzodiazepin-2-one
Formula: C16H13ClN2O
Exact mass: 284.0716407
SMILES: CN1C2=C(C=C(Cl)C=C2)C(=NCC1=O)C1=CC=CC=C1
InChI: InChI=1S/C16H13ClN2O/c1-19-14-8-7-12(17)9-13(14)16(18-10-15(19)20)11-5-3-2-4-6-11/h2-9H,10H2,1H3
Instrument: Q Exactive Plus
Instrument type: LC-ESI-QFT
Ms type: MS2
Ion mode: POSITIVE
Ionization: ESI
Fragmentation mode: HCD
Collision energy: 30 % (nominal)
Resolution: 15000
Column name: XBridge C18 3.5um, 2.1x50mm, Waters
Retention time: 8.885 min
Base peak: 285.079
Precursor m/z: 285.0789
Precursor type: [M+H]+
Precursor intensity: 504649844.09
m/z	relative intensity	assigned
105.0335	11	C7H5O+
154.0417	24	C8H9ClN+
182.0365	13	C9H9ClNO+
222.1148	11	C15H14N2+
228.0572	12	C14H11ClN+
257.0839	39	C15H14ClN2+
285.0788	999	C16H14ClN2O+
