Mass spectrum: Mefenpyr-diethyl; LC-ESI-QFT; MS2; CE: 60%; R=15000; [M+H]+
Name: Mefenpyr-diethyl
Name: diethyl 1-(2,4-dichlorophenyl)-5-methyl-4H-pyrazole-3,5-dicarboxylate
Formula: C16H18Cl2N2O4
Exact mass: 372.0643624
SMILES: CCOC(=O)C1=NN(C2=C(Cl)C=C(Cl)C=C2)C(C)(C1)C(=O)OCC
InChI: InChI=1S/C16H18Cl2N2O4/c1-4-23-14(21)12-9-16(3,15(22)24-5-2)20(19-12)13-7-6-10(17)8-11(13)18/h6-8H,4-5,9H2,1-3H3
Instrument: Q Exactive Plus
Instrument type: LC-ESI-QFT
Ms type: MS2
Ion mode: POSITIVE
Ionization: ESI
Fragmentation mode: HCD
Collision energy: 60 % (nominal)
Resolution: 15000
Column name: XBridge C18 3.5um, 2.1x50mm, Waters
Retention time: 11.907 min
Base peak: 373.0719
Precursor m/z: 373.0716
Precursor type: [M+H]+
Precursor intensity: 306650994.19
m/z	relative intensity	assigned
84.984	37	C4H2Cl+
98.9996	26	C5H4Cl+
108.9839	26	C6H2Cl+
120.9606	16	C4H3Cl2+
123.995	28	C6H3ClN+
125.0025	16	C6H4ClN+
126.9945	50	C6H4ClO+
128.0024	57	C6H5ClO+
132.9606	471	C5H3Cl2+
142.0056	11	C6H5ClNO+
144.9607	25	C6H3Cl2+
159.9715	999	C6H4Cl2N+
160.9794	48	C6H5Cl2N+
162.9711	52	C6H5Cl2O+
165.0338	25	C9H8ClN+
172.9668	502	C6H3Cl2N2+
183.9715	10	C8H4Cl2N+
185.9871	535	C8H6Cl2N+
189.0213	33	C10H6ClN2+
190.0292	77	C10H7ClN2+
224.9978	22	C13H4ClNO+
271.0034	216	C11H9Cl2N2O2+
298.9989	75	C12H9Cl2N2O3+
