Mass spectrum: 1,7-Dimethyluric acid; LC-ESI-QFT; MS2; CE: 180%; R=17500; [M+H]+
Name: 1,7-Dimethyluric acid
Name: 1,7-dimethyl-3,9-dihydropurine-2,6,8-trione
Formula: C7H8N4O3
Exact mass: 196.0596401
SMILES: CN1C2=C(NC1=O)NC(=O)N(C2=O)C
InChI: InChI=1S/C7H8N4O3/c1-10-3-4(8-6(10)13)9-7(14)11(2)5(3)12/h1-2H3,(H,8,13)(H,9,14)
Instrument: Exploris 240 Orbitrap Thermo Scientific
Instrument type: LC-ESI-QFT
Ms type: MS2
Ion mode: POSITIVE
Ionization: ESI
Fragmentation mode: HCD
Collision energy: 180 % (nominal)
Resolution: 17500
Column name: XBridge C18 3.5um, 2.1x50mm, Waters
Retention time: 2.330 min
Base peak: 197.0669
Precursor m/z: 197.0669
Precursor type: [M+H]+
m/z	relative intensity	assigned
54.0212	999	C2H2N2+
55.0292	158	C2H3N2+
58.0288	194	C2H4NO+
67.0291	215	C3H3N2+
69.0084	351	C2HN2O+
69.0447	590	C3H5N2+
69.9924	356	C2NO2+
70.0163	173	C2H2N2O+
71.0241	149	C2H3N2O+
82.0404	144	C3H4N3+
