Mass spectrum: Bicalutamide; LC-ESI-QFT; MS2; CE: 60%; R=15000; [M+H]+
Name: Bicalutamide
Name: N-[4-cyano-3-(trifluoromethyl)phenyl]-3-(4-fluorophenyl)sulfonyl-2-hydroxy-2-methylpropanamide
Formula: C18H14F4N2O4S
Exact mass: 430.0610408
SMILES: CC(O)(CS(=O)(=O)C1=CC=C(F)C=C1)C(=O)NC1=CC(=C(C=C1)C#N)C(F)(F)F
InChI: InChI=1S/C18H14F4N2O4S/c1-17(26,10-29(27,28)14-6-3-12(19)4-7-14)16(25)24-13-5-2-11(9-23)15(8-13)18(20,21)22/h2-8,26H,10H2,1H3,(H,24,25)
Instrument: Q Exactive Plus
Instrument type: LC-ESI-QFT
Ms type: MS2
Ion mode: POSITIVE
Ionization: ESI
Fragmentation mode: HCD
Collision energy: 60 % (nominal)
Resolution: 15000
Column name: XBridge C18 3.5um, 2.1x50mm, Waters
Retention time: 8.374 min
Base peak: 164.9846
Precursor m/z: 431.0683
Precursor type: [M+H]+
Precursor intensity: 31308584.26
m/z	relative intensity	assigned
50.0151	22	C4H2+
51.0229	93	C4H3+
71.0291	75	C4H4F+
75.0229	59	C6H3+
79.0178	27	C5H3O+
93.0335	17	C6H5O+
95.0291	52	C6H4F+
99.0241	20	C5H4FO+
111.0241	13	C6H4FO+
111.044	33	C6H7O2+
113.0397	620	C6H6FO+
115.0013	30	C5H4FS+
118.0527	23	C7H6N2+
123.0353	999	C6H4FN2+
139.0059	15	C3H7O4S+
142.9962	142	F4H3O4+
158.991	450	C6H4FO2S+
161.0067	29	C6H6FO2S+
165.0458	103	C8H6FN2O+
167.0414	20	C8H5F2N2+
185.052	419	C8H7F2N2O+
187.0476	181	C8H6F3N2+
