Mass spectrum: BifenoxH; LC-ESI-QFT; MS2; CE: 90%; R=15000; [M+H]+
Name: BifenoxH
Name: Bifenox
Name: methyl 5-(2,4-dichlorophenoxy)-2-nitrobenzoate
Formula: C14H9Cl2NO5
Exact mass: 340.9857777
SMILES: COC(=O)C1=C(C=CC(=C1)OC2=C(C=C(C=C2)Cl)Cl)[N+](=O)[O-]
InChI: InChI=1S/C14H9Cl2NO5/c1-21-14(18)10-7-9(3-4-12(10)17(19)20)22-13-5-2-8(15)6-11(13)16/h2-7H,1H3
Instrument: Q Exactive Plus
Instrument type: LC-ESI-QFT
Ms type: MS2
Ion mode: POSITIVE
Ionization: ESI
Fragmentation mode: HCD
Collision energy: 90 % (nominal)
Resolution: 15000
Column name: XBridge C18 3.5um, 2.1x50mm, Waters
Retention time: 12.553 min
Base peak: 164.9845
Precursor m/z: 341.9931
Precursor type: [M+H]+
Precursor intensity: 10833477.93
m/z	relative intensity	assigned
50.0151	63	C4H2+
51.0229	53	C4H3+
52.0181	33	C3H2N+
53.0022	88	C3HO+
65.0385	169	C5H5+
67.0178	57	C4H3O+
68.997	102	C3HO2+
72.9839	325	C3H2Cl+
74.015	451	C6H2+
75.0228	106	C6H3+
76.0181	255	C5H2N+
77.0259	49	C5H3N+
82.9449	143	CHCl2+
86.9632	218	C3ClO+
96.9839	134	C5H2Cl+
104.013	81	C6H2NO+
106.9449	94	C3HCl2+
108.9839	999	C6H2Cl+
109.9921	34	C6H3Cl+
113.0384	129	C9H5+
125.9865	63	C6H3ClO+
132.9605	991	C5H3Cl2+
140.0494	440	C10H6N+
144.9606	43	C6H3Cl2+
146.9996	80	C9H4Cl+
148.0069	32	C9H5Cl+
152.0021	36	C8H5ClO+
157.0519	51	C10H7NO+
162.9708	15	C6H5Cl2O+
168.044	15	C11H6NO+
172.9667	86	C9ClNO+
173.0152	266	C11H6Cl+
174.0108	51	C10H5ClN+
176.002	44	C10H5ClO+
188.95	33	C7H3Cl2O2+
