Mass spectrum: Pentoxifylline; LC-ESI-QFT; MS2; CE: 90%; R=17500; [M+H]+
Name: Pentoxifylline
Name: 3,7-dimethyl-1-(5-oxohexyl)purine-2,6-dione
Formula: C13H18N4O3
Exact mass: 278.1378904
SMILES: CC(=O)CCCCN1C(=O)C2=C(N=CN2C)N(C1=O)C
InChI: InChI=1S/C13H18N4O3/c1-9(18)6-4-5-7-17-12(19)10-11(14-8-15(10)2)16(3)13(17)20/h8H,4-7H2,1-3H3
Instrument: Exploris 240 Orbitrap Thermo Scientific
Instrument type: LC-ESI-QFT
Ms type: MS2
Ion mode: POSITIVE
Ionization: ESI
Fragmentation mode: HCD
Collision energy: 90 % (nominal)
Resolution: 17500
Column name: XBridge C18 3.5um, 2.1x50mm, Waters
Retention time: 4.458 min
Base peak: 279.1449
Precursor m/z: 279.1452
Precursor type: [M+H]+
m/z	relative intensity	assigned
56.0495	93	C3H6N+
67.0291	639	C3H3N2+
69.0447	547	C3H5N2+
81.0702	69	C6H9+
83.0604	552	C4H7N2+
96.0558	79	C4H6N3+
99.0806	145	C6H11O+
108.0557	447	C5H6N3+
109.04	75	C5H5N2O+
110.0712	891	C5H8N3+
122.0586	317	C5H6N4+
123.043	147	C5H5N3O+
135.0665	307	C6H7N4+
137.082	248	C6H9N4+
138.0662	999	C6H8N3O+
163.0613	462	C7H7N4O+
181.0721	618	C7H9N4O2+
