Mass spectrum: Nifedipine; LC-ESI-QFT; MS2; CE: 50%; R=15000; [M+H]+
Name: Nifedipine
Name: dimethyl 2,6-dimethyl-4-(2-nitrophenyl)-1,4-dihydropyridine-3,5-dicarboxylate
Formula: C17H18N2O6
Exact mass: 346.1164863
SMILES: CC1=C(C(C(=C(N1)C)C(=O)OC)C2=CC=CC=C2[N+](=O)[O-])C(=O)OC
InChI: InChI=1S/C17H18N2O6/c1-9-13(16(20)24-3)15(14(10(2)18-9)17(21)25-4)11-7-5-6-8-12(11)19(22)23/h5-8,15,18H,1-4H3
Instrument: Exploris 240 Thermo Scientific
Instrument type: LC-ESI-QFT
Ms type: MS2
Ion mode: POSITIVE
Ionization: ESI
Fragmentation mode: HCD
Collision energy: 50 % (nominal)
Resolution: 15000
Column name: XBridge C18 3.5um, 2.1x50mm, Waters
Retention time: 7.287 min
Base peak: 347.1235
Precursor m/z: 347.1238
Precursor type: [M+H]+
m/z	relative intensity	assigned
89.0387	43	C7H5+
115.0541	438	C9H7+
128.0623	134	C10H8+
129.0701	77	C10H9+
139.0545	84	C11H7+
140.0497	164	C10H6N+
141.057	63	C10H7N+
141.0702	94	C11H9+
142.065	98	C10H8N+
144.0445	62	C9H6NO+
145.0651	51	C10H9O+
152.0497	85	C11H6N+
153.0572	104	C11H7N+
154.0649	263	C11H8N+
155.0602	103	C10H7N2+
166.0651	292	C12H8N+
167.0731	563	C12H9N+
170.0599	118	C11H8NO+
179.0599	277	C12H7N2+
180.0679	70	C12H8N2+
181.0754	170	C12H9N2+
192.068	162	C13H8N2+
193.0759	880	C13H9N2+
194.0837	314	C13H10N2+
195.0915	999	C13H11N2+
196.0994	49	C13H12N2+
202.0776	644	C16H10+
211.0867	59	C13H11N2O+
223.0868	284	C14H11N2O+
226.086	133	C14H12NO2+
253.0971	78	C15H13N2O2+
