Mass spectrum: Licarbazepine; LC-ESI-QFT; MS2; CE: 150%; R=17500; [M+H]+
Name: Licarbazepine
Name: 5-hydroxy-5,6-dihydrobenzo[b][1]benzazepine-11-carboxamide
Formula: C15H14N2O2
Exact mass: 254.1055277
SMILES: C1C(C2=CC=CC=C2N(C3=CC=CC=C31)C(=O)N)O
InChI: InChI=1S/C15H14N2O2/c16-15(19)17-12-7-3-1-5-10(12)9-14(18)11-6-2-4-8-13(11)17/h1-8,14,18H,9H2,(H2,16,19)
Instrument: Exploris 240 Orbitrap Thermo Scientific
Instrument type: LC-ESI-QFT
Ms type: MS2
Ion mode: POSITIVE
Ionization: ESI
Fragmentation mode: HCD
Collision energy: 150 % (nominal)
Resolution: 17500
Column name: XBridge C18 3.5um, 2.1x50mm, Waters
Retention time: 5.085 min
Base peak: 237.1021
Precursor m/z: 255.1128
Precursor type: [M+H]+
m/z	relative intensity	assigned
51.023	34	C4H3+
63.023	50	C5H3+
65.0385	127	C5H5+
77.0386	37	C6H5+
89.0385	427	C7H5+
90.0464	197	C7H6+
91.0543	54	C7H7+
95.049	31	C6H7O+
102.0462	35	C8H6+
115.0541	143	C9H7+
116.049	28	C8H6N+
117.0573	69	C8H7N+
126.0463	54	C10H6+
128.0497	54	C9H6N+
128.0623	54	C10H8+
139.0542	172	C11H7+
140.0497	113	C10H6N+
140.0619	26	C11H8+
150.0465	65	C12H6+
151.0542	213	C12H7+
152.049	19	C11H6N+
152.062	375	C12H8+
153.057	85	C11H7N+
163.0545	115	C13H7+
164.0627	177	C13H8+
165.07	799	C13H9+
166.0647	256	C12H8N+
167.0729	299	C12H9N+
168.0575	21	C12H8O+
169.065	113	C12H9O+
176.0622	46	C14H8+
177.0567	150	C13H7N+
178.065	430	C13H8N+
190.0652	337	C14H8N+
191.073	999	C14H9N+
192.0809	706	C14H10N+
193.0888	198	C14H11N+
