Mass spectrum: Suberoylanilide hydroxamic acid; LC-ESI-QFT; MS2; CE: 150%; R=15000; [M+H]+
Name: Suberoylanilide hydroxamic acid
Name: Vorinostat
Name: N`-hydroxy-N-phenyloctanediamide
Formula: C14H20N2O3
Exact mass: 264.1473925
SMILES: C1=CC=C(C=C1)NC(=O)CCCCCCC(=O)NO
InChI: InChI=1S/C14H20N2O3/c17-13(15-12-8-4-3-5-9-12)10-6-1-2-7-11-14(18)16-19/h3-5,8-9,19H,1-2,6-7,10-11H2,(H,15,17)(H,16,18)
Instrument: Exploris 240 Thermo Scientific
Instrument type: LC-ESI-QFT
Ms type: MS2
Ion mode: POSITIVE
Ionization: ESI
Fragmentation mode: HCD
Collision energy: 150 % (nominal)
Resolution: 15000
Column name: XBridge C18 3.5um, 2.1x50mm, Waters
Retention time: 4.916 min
Base peak: 265.1544
Precursor m/z: 265.1547
Precursor type: [M+H]+
m/z	relative intensity	assigned
51.0229	420	C4H3+
53.0386	129	C4H5+
55.0178	138	C3H3O+
55.0542	456	C4H7+
65.0386	268	C5H5+
67.0543	70	C5H7+
77.0386	999	C6H5+
79.0543	38	C6H7+
91.0543	83	C7H7+
92.0494	124	C6H6N+
93.0574	63	C6H7N+
94.0651	219	C6H8N+
95.0492	594	C6H7O+
105.0446	320	C6H5N2+
