Mass spectrum: Quinoxyfen; LC-ESI-QFT; MS2; CE: 60%; R=15000; [M+H]+
Name: Quinoxyfen
Name: 5,7-dichloro-4-(4-fluorophenoxy)quinoline
Formula: C15H8Cl2FNO
Exact mass: 306.9966975
SMILES: FC1=CC=C(OC2=CC=NC3=CC(Cl)=CC(Cl)=C23)C=C1
InChI: InChI=1S/C15H8Cl2FNO/c16-9-7-12(17)15-13(8-9)19-6-5-14(15)20-11-3-1-10(18)2-4-11/h1-8H
Instrument: Q Exactive Plus
Instrument type: LC-ESI-QFT
Ms type: MS2
Ion mode: POSITIVE
Ionization: ESI
Fragmentation mode: HCD
Collision energy: 60 % (nominal)
Resolution: 15000
Column name: XBridge C18 3.5um, 2.1x50mm, Waters
Retention time: 13.956 min
Base peak: 308.0044
Precursor m/z: 308.004
Precursor type: [M+H]+
Precursor intensity: 283474084.27
m/z	relative intensity	assigned
75.023	33	C6H3+
95.0293	12	C6H4F+
113.0398	81	C6H6FO+
123	23	C7H4Cl+
133.0522	13	C8H7NO+
150.0106	45	C8H5ClN+
162.0105	136	C9H5ClN+
166.0054	16	C8H5ClNO+
168.0211	68	C8H7ClNO+
184.9793	29	C8H5Cl2N+
196.9795	999	C9H5Cl2N+
209.0636	34	C14H8FN+
210.071	20	C14H9FN+
213.9822	608	C9H6Cl2NO+
217.0218	14	C13H7ClF+
225.0343	32	C14H8ClN+
237.0586	86	C15H8FNO+
244.0326	126	C14H8ClFN+
245.0403	168	C14H9ClFN+
253.0293	16	C15H8ClNO+
254.0367	13	C15H9ClNO+
272.0274	496	C15H8ClFNO+
280.0094	48	C14H9Cl2FN+
287.9986	37	C15H8Cl2NO+
308.0042	588	C15H9Cl2FNO+
