Mass spectrum: 4-Chloroaniline; LC-ESI-QFT; MS2; CE: 180%; R=15000; [M+H]+
Name: 4-Chloroaniline
Formula: C6H6ClN
Exact mass: 127.0188769
SMILES: NC1=CC=C(Cl)C=C1
InChI: InChI=1S/C6H6ClN/c7-5-1-3-6(8)4-2-5/h1-4H,8H2
Instrument: Q Exactive Plus
Instrument type: LC-ESI-QFT
Ms type: MS2
Ion mode: POSITIVE
Ionization: ESI
Fragmentation mode: HCD
Collision energy: 180 % (nominal)
Resolution: 15000
Column name: XBridge C18 3.5um, 2.1x50mm, Waters
Retention time: 3.190 min
Base peak: 128.0262
Precursor m/z: 128.0262
Precursor type: [M+H]+
Precursor intensity: 610397774.84
m/z	relative intensity	assigned
50.0151	191	C4H2+
51.0229	113	C4H3+
54.0338	27	C3H4N+
65.0386	248	C5H5+
66.0464	332	C5H6+
67.0416	23	C4H5N+
74.0151	919	C6H2+
75.0229	999	C6H3+
76.0307	49	C6H4+
78.0337	29	C5H4N+
84.984	161	C4H2Cl+
92.0494	100	C6H6N+
93.0573	196	C6H7N+
