Mass spectrum: ortho-Hydroxyatorvastatin; LC-ESI-QFT; MS2; CE: 60%; R=17500; [M+H]+
Name: ortho-Hydroxyatorvastatin
Name: Orthohydroxyatorvastatin
Name: (3R,5R)-7-[2-(4-fluorophenyl)-4-[(2-hydroxyphenyl)carbamoyl]-3-phenyl-5-propan-2-ylpyrrol-1-yl]-3,5-dihydroxyheptanoic acid
Formula: C33H35FN2O6
Exact mass: 574.2479151
SMILES: CC(C1=C(C(NC2=CC=CC=C2O)=O)C(C3=CC=CC=C3)=C(C4=CC=C(F)C=C4)N1CC[C@@H](O)C[C@@H](O)CC(O)=O)C
InChI: InChI=1S/C33H35FN2O6/c1-20(2)31-30(33(42)35-26-10-6-7-11-27(26)39)29(21-8-4-3-5-9-21)32(22-12-14-23(34)15-13-22)36(31)17-16-24(37)18-25(38)19-28(40)41/h3-15,20,24-25,37-39H,16-19H2,1-2H3,(H,35,42)(H,40,41)/t24-,25-/m1/s1
Instrument: Exploris 240 Orbitrap Thermo Scientific
Instrument type: LC-ESI-QFT
Ms type: MS2
Ion mode: POSITIVE
Ionization: ESI
Fragmentation mode: HCD
Collision energy: 60 % (nominal)
Resolution: 17500
Column name: XBridge C18 3.5um, 2.1x50mm, Waters
Retention time: 9.950 min
Base peak: 575.2551
Precursor m/z: 575.2552
Precursor type: [M+H]+
m/z	relative intensity	assigned
71.0127	14	C3H3O2+
71.049	10	C4H7O+
79.0542	36	C6H7+
80.0495	53	C5H6N+
83.0491	32	C5H7O+
89.023	6	C3H5O3+
91.0542	5	C7H7+
101.0595	19	C5H9O2+
104.0497	6	C7H6N+
108.0444	91	C6H6NO+
109.0446	9	C7H6F+
115.0544	11	C9H7+
117.0574	6	C8H7N+
122.0402	10	C7H5FN+
129.0698	10	C10H9+
133.0448	15	C9H6F+
154.0649	7	C11H8N+
203.0855	15	C16H11+
221.0761	8	C16H10F+
223.0918	13	C16H12F+
230.0959	20	C17H12N+
233.0763	55	C17H10F+
235.079	28	C16H10FN+
236.0873	3	C16H11FN+
238.1028	91	C16H13FN+
248.0869	75	C17H11FN+
249.095	132	C17H12FN+
250.1028	999	C17H13FN+
251.1081	9	C14H16FO3+
252.1182	29	C17H15FN+
259.0911	6	C19H12F+
262.1027	67	C18H13FN+
264.0821	40	C17H11FNO+
264.1186	36	C18H15FN+
274.1031	18	C19H13FN+
275.1114	16	C19H14FN+
276.0819	46	C18H11FNO+
276.118	366	C19H15FN+
277.1258	29	C19H16FN+
278.1343	11	C19H17FN+
288.1185	21	C20H15FN+
289.1257	12	C20H16FN+
290.1331	27	C20H17FN+
292.1499	51	C20H19FN+
300.1175	11	C21H15FN+
302.0962	13	C23H12N+
302.1343	56	C21H17FN+
306.1292	41	C20H17FNO+
316.1504	13	C22H19FN+
318.1277	8	C24H16N+
344.1454	7	C23H19FNO+
362.1548	64	C23H21FNO2+
