Mass spectrum: 3-Hydroxymethylmefenamic acid; LC-ESI-QFT; MS2; CE: 45%; R=17500; [M+H]+
Name: 3-Hydroxymethylmefenamic acid
Name: 3-Hydroxymethyl Mefenamic Acid
Name: 2-[3-(hydroxymethyl)-2-methylanilino]benzoic acid
Formula: C15H15NO3
Exact mass: 257.1051933
SMILES: CC1=C(C=CC=C1NC2=CC=CC=C2C(=O)O)CO
InChI: InChI=1S/C15H15NO3/c1-10-11(9-17)5-4-8-13(10)16-14-7-3-2-6-12(14)15(18)19/h2-8,16-17H,9H2,1H3,(H,18,19)
Instrument: Exploris 240 Orbitrap Thermo Scientific
Instrument type: LC-ESI-QFT
Ms type: MS2
Ion mode: POSITIVE
Ionization: ESI
Fragmentation mode: HCD
Collision energy: 45 % (nominal)
Resolution: 17500
Column name: XBridge C18 3.5um, 2.1x50mm, Waters
Retention time: 8.513 min
Base peak: 258.1122
Precursor m/z: 258.1125
Precursor type: [M+H]+
m/z	relative intensity	assigned
105.0332	9	C7H5O+
179.073	12	C13H9N+
180.0807	19	C13H10N+
181.0886	26	C13H11N+
193.0889	6	C14H11N+
194.0964	154	C14H12N+
195.1041	33	C14H13N+
196.112	39	C14H14N+
204.0808	22	C15H10N+
207.0674	40	C14H9NO+
210.0911	404	C14H12NO+
222.0913	999	C15H12NO+
240.1019	232	C15H14NO2+
