Mass spectrum: Meropenem; LC-ESI-QFT; MS2; CE: 15%; R=15000; [M+H]+
Name: Meropenem
Name: 3-[5-(dimethylcarbamoyl)pyrrolidin-3-yl]sulfanyl-6-(1-hydroxyethyl)-4-methyl-7-oxo-1-azabicyclo[3.2.0]hept-2-ene-2-carboxylic acid
Formula: C17H25N3O5S
Exact mass: 383.1514919
SMILES: CC1C2C(C(=O)N2C(=C1SC3CC(NC3)C(=O)N(C)C)C(=O)O)C(C)O
InChI: InChI=1S/C17H25N3O5S/c1-7-12-11(8(2)21)16(23)20(12)13(17(24)25)14(7)26-9-5-10(18-6-9)15(22)19(3)4/h7-12,18,21H,5-6H2,1-4H3,(H,24,25)
Instrument: Exploris 240 Thermo Scientific
Instrument type: LC-ESI-QFT
Ms type: MS2
Ion mode: POSITIVE
Ionization: ESI
Fragmentation mode: HCD
Collision energy: 15 % (nominal)
Resolution: 15000
Column name: XBridge C18 3.5um, 2.1x50mm, Waters
Retention time: 2.456 min
Base peak: 384.1589
Precursor m/z: 384.1588
Precursor type: [M+H]+
m/z	relative intensity	assigned
68.0495	137	C4H6N+
122.0962	10	C8H12N+
141.1022	318	C7H13N2O+
143.118	16	C7H15N2O+
152.1067	12	C9H14NO+
170.1174	50	C9H16NO2+
171.0584	31	C7H11N2OS+
173.0744	33	C7H13N2OS+
175.09	33	C7H15N2OS+
181.0794	15	C9H13N2S+
200.0739	57	C9H14NO2S+
215.1212	12	C10H19N2OS+
254.1322	153	C12H20N3OS+
267.117	38	C13H19N2O2S+
298.1221	157	C13H20N3O3S+
340.1691	377	C16H26N3O3S+
384.1589	999	C17H26N3O5S+
