Mass spectrum: Mirabegron; LC-ESI-QFT; MS2; CE: 120%; R=15000; [M+H]+
Name: Mirabegron
Name: (S)-Mirabegron
Name: 2-(2-azanyl-1,3-thiazol-4-yl)-N-[4-[2-[[(2R)-2-oxidanyl-2-phenyl-ethyl]amino]ethyl]phenyl]ethanamide
Formula: C21H24N4O2S
Exact mass: 396.161997
SMILES: C1=CC=C(C=C1)C(CNCCC2=CC=C(C=C2)NC(=O)CC3=CSC(=N3)N)O
InChI: InChI=1S/C21H24N4O2S/c22-21-25-18(14-28-21)12-20(27)24-17-8-6-15(7-9-17)10-11-23-13-19(26)16-4-2-1-3-5-16/h1-9,14,19,23,26H,10-13H2,(H2,22,25)(H,24,27)
Instrument: Q Exactive
Instrument type: LC-ESI-QFT
Ms type: MS2
Ion mode: POSITIVE
Ionization: ESI
Fragmentation mode: HCD
Collision energy: 120 % (nominal)
Resolution: 15000
Column name: XBridge C18 3.5um, 2.1x50mm, Waters
Retention time: 3.052 min
Base peak: 190.083
Precursor m/z: 397.1693
Precursor type: [M+H]+
Precursor intensity: 21474486.95
m/z	relative intensity	assigned
65.0386	207	C5H5+
69.0447	186	C3H5N2+
70.995	968	C3H3S+
75.0229	62	C6H3+
77.0385	114	C6H5+
79.0542	40	C6H7+
80.0494	46	C5H6N+
86.0059	145	C3H4NS+
91.0542	846	C7H7+
92.0494	60	C6H6N+
93.0573	539	C6H7N+
94.0651	124	C6H8N+
95.0491	999	C6H7O+
103.0542	622	C8H7+
105.0448	304	C6H5N2+
113.0168	295	C4H5N2S+
116.0494	20	C8H6N+
117.0573	210	C8H7N+
118.0651	222	C8H8N+
119.049	86	C8H7O+
119.0731	141	C8H9N+
120.0807	234	C8H10N+
128.0494	330	C9H6N+
129.0445	152	C8H5N2+
146.0598	72	C9H8NO+
