Mass spectrum: Chloroprocaine; LC-ESI-QFT; MS2; CE: 50%; R=15000; [M+H]+
Name: Chloroprocaine
Name: 2-(diethylamino)ethyl 4-azanyl-2-chloranyl-benzoate
Formula: C13H19ClN2O2
Exact mass: 270.1135055
SMILES: CCN(CC)CCOC(=O)C1=C(C=C(C=C1)N)Cl
InChI: InChI=1S/C13H19ClN2O2/c1-3-16(4-2)7-8-18-13(17)11-6-5-10(15)9-12(11)14/h5-6,9H,3-4,7-8,15H2,1-2H3
Instrument: Exploris 240 Thermo Scientific
Instrument type: LC-ESI-QFT
Ms type: MS2
Ion mode: POSITIVE
Ionization: ESI
Fragmentation mode: HCD
Collision energy: 50 % (nominal)
Resolution: 15000
Column name: XBridge C18 3.5um, 2.1x50mm, Waters
Retention time: 2.385 min
Base peak: 271.1203
Precursor m/z: 271.1208
Precursor type: [M+H]+
m/z	relative intensity	assigned
72.0808	273	C4H10N+
90.0337	123	C6H4N+
91.0418	15	C6H5N+
98.9995	147	C5H4Cl+
100.112	227	C6H14N+
108.0444	11	C6H6NO+
109.0521	20	C6H7NO+
126.0104	241	C6H5ClN+
144.0208	124	C6H7ClNO+
154.0053	999	C7H5ClNO+
198.0319	10	C9H9ClNO2+
