Mass spectrum: Flumioxazin; LC-ESI-QFT; MS2; CE: 90%; R=15000; [M+H]+
Name: Flumioxazin
Name: 2-(7-fluoro-3-oxo-4-prop-2-ynyl-1,4-benzoxazin-6-yl)-4,5,6,7-tetrahydroisoindole-1,3-dione
Formula: C19H15FN2O4
Exact mass: 354.1015852
SMILES: FC1=CC2=C(C=C1N1C(=O)C3=C(CCCC3)C1=O)N(CC#C)C(=O)CO2
InChI: InChI=1S/C19H15FN2O4/c1-2-7-21-15-9-14(13(20)8-16(15)26-10-17(21)23)22-18(24)11-5-3-4-6-12(11)19(22)25/h1,8-9H,3-7,10H2
Instrument: Q Exactive Plus
Instrument type: LC-ESI-QFT
Ms type: MS2
Ion mode: POSITIVE
Ionization: ESI
Fragmentation mode: HCD
Collision energy: 90 % (nominal)
Resolution: 15000
Column name: XBridge C18 3.5um, 2.1x50mm, Waters
Retention time: 8.237 min
Base peak: 355.1091
Precursor m/z: 355.1089
Precursor type: [M+H]+
Precursor intensity: 108809856.34
m/z	relative intensity	assigned
50.0152	62	C4H2+
51.023	153	C4H3+
53.0386	385	C4H5+
54.0339	23	C3H4N+
55.0178	53	C3H3O+
63.0231	13	C5H3+
65.0386	43	C5H5+
67.054	35	C5H7+
68.0494	31	C4H6N+
75.0229	117	C6H3+
77.0385	168	C6H5+
78.0338	56	C5H4N+
79.0542	999	C6H7+
80.062	104	C6H8+
81.0335	41	C5H5O+
81.07	60	C6H9+
83.0292	59	C5H4F+
91.0542	155	C7H7+
95.0492	814	C6H7O+
96.0243	30	C5H3FN+
96.0441	19	C5H6NO+
101.0385	73	C8H5+
103.0538	12	C8H7+
104.0493	44	C7H6N+
105.0333	41	C7H5O+
105.0448	243	C6H5N2+
107.0292	144	C7H4F+
107.0491	314	C7H7O+
108.0246	14	C6H3FN+
109.0448	32	C7H6F+
110.0402	25	C6H5FN+
113.0393	22	C6H6FO+
116.0494	43	C8H6N+
117.0573	32	C8H7N+
118.0289	17	C7H4NO+
119.0492	141	C8H7O+
120.0368	33	C8H5F+
120.0446	17	C7H6NO+
121.0448	382	C8H6F+
122.0401	110	C7H5FN+
124.0193	115	C6H3FNO+
128.0494	197	C9H6N+
129.0448	279	C8H5N2+
129.0553	14	C3H10FO4+
132.0443	18	C8H6NO+
134.0238	18	C7H4NO2+
134.04	135	C8H5FN+
135.0479	110	C8H6FN+
136.0194	18	C7H3FNO+
136.0553	21	C8H7FN+
138.0351	138	C7H5FNO+
140.0496	55	C10H6N+
142.053	11	C9H6N2+
144.0445	18	C9H6NO+
146.0405	60	C9H5FN+
147.0476	41	C9H6FN+
148.0557	518	C9H7FN+
149.051	35	C8H6FN2+
150.035	92	C8H5FNO+
151.0303	54	C7H4FN2O+
152.0144	132	C7H3FNO2+
153.0455	23	C7H6FN2O+
154.0651	79	C11H8N+
155.0607	46	C10H7N2+
156.0443	66	C10H6NO+
160.0425	33	C9H5FN2+
160.0555	24	C10H7FN+
161.0507	18	C9H6FN2+
161.0631	15	C10H8FN+
162.0349	40	C9H5FNO+
163.03	74	C8H4FN2O+
163.0428	26	C9H6FNO+
163.0664	22	C9H8FN2+
164.0498	67	C12H6N+
165.0456	31	C8H6FN2O+
166.0657	63	C9H9FNO+
167.0604	14	C11H7N2+
167.0728	71	C12H9N+
173.0505	48	C10H6FN2+
174.0349	24	C10H5FNO+
175.0428	23	C10H6FNO+
175.0665	18	C10H8FN2+
176.0506	125	C10H7FNO+
177.0454	69	C9H6FN2O+
179.0248	172	C8H4FN2O2+
179.06	25	C12H7N2+
180.0808	26	C13H10N+
181.0758	30	C12H9N2+
182.0602	26	C12H8NO+
186.0716	29	C12H9FN+
187.066	20	C11H8FN2+
189.0455	73	C10H6FN2O+
190.0669	15	C11H9FNO+
191.0255	62	C9H4FN2O2+
193.0762	38	C13H9N2+
195.0914	22	C13H11N2+
198.071	24	C13H9FN+
199.0499	28	C11H7N2O2+
199.066	12	C12H8FN2+
204.0456	26	C11H7FNO2+
205.0404	57	C10H6FN2O2+
209.0702	28	C13H9N2O+
212.0506	34	C13H7FNO+
212.088	59	C14H11FN+
213.0457	33	C12H6FN2O+
214.0659	20	C13H9FNO+
215.0612	25	C12H8FN2O+
219.0559	100	C11H8FN2O2+
229.0768	28	C13H10FN2O+
231.0556	56	C12H8FN2O2+
232.0401	19	C12H7FNO3+
239.0617	55	C14H8FN2O+
253.0766	21	C15H10FN2O+
257.0717	14	C14H10FN2O2+
259.0514	174	C13H8FN2O3+
