Mass spectrum: 6-O-Desmethyl-mycophenolic acid; LC-ESI-QFT; MS2; CE: 75%; R=17500; [M-H]-
Name: 6-O-Desmethyl-mycophenolic acid
Name: 6-(4,6-dihydroxy-7-methyl-3-oxo-1H-2-benzofuran-5-yl)-4-methylhex-4-enoic acid
Formula: C16H18O6
Exact mass: 306.1103383
SMILES: CC1=C2COC(=O)C2=C(C(=C1O)CC=C(C)CCC(=O)O)O
InChI: InChI=1S/C16H18O6/c1-8(4-6-12(17)18)3-5-10-14(19)9(2)11-7-22-16(21)13(11)15(10)20/h3,19-20H,4-7H2,1-2H3,(H,17,18)
Instrument: Exploris 240 Orbitrap Thermo Scientific
Instrument type: LC-ESI-QFT
Ms type: MS2
Ion mode: NEGATIVE
Ionization: ESI
Fragmentation mode: HCD
Collision energy: 75 % (nominal)
Resolution: 17500
Column name: XBridge C18 3.5um, 2.1x50mm, Waters
Retention time: 6.307 min
Base peak: 305.1029
Precursor m/z: 305.1031
Precursor type: [M-H]-
m/z	relative intensity	assigned
59.0139	173	C2H3O2-
79.0554	78	C6H7-
89.04	63	C7H5-
93.0347	104	C6H5O-
95.0504	176	C6H7O-
105.071	86	C8H9-
106.0424	101	C7H6O-
107.0506	241	C7H7O-
119.0504	253	C8H7O-
120.058	410	C8H8O-
121.0659	925	C8H9O-
123.0816	133	C8H11O-
133.0659	170	C9H9O-
134.0378	230	C8H6O2-
135.0452	467	C8H7O2-
147.0448	294	C9H7O2-
148.0533	439	C9H8O2-
149.0614	199	C9H9O2-
160.0527	94	C10H8O2-
161.0612	497	C10H9O2-
161.0975	122	C11H13O-
163.0399	148	C9H7O3-
173.0609	382	C11H9O2-
178.0271	298	C9H6O4-
179.0352	193	C9H7O4-
187.0769	189	C12H11O2-
189.1282	117	C13H17O-
191.0349	999	C10H7O4-
192.0428	333	C10H8O4-
203.0349	531	C11H7O4-
205.0509	173	C11H9O4-
231.0664	108	C13H11O4-
