Mass spectrum: Imatinib; LC-ESI-QFT; MS2; CE: 25%; R=15000; [M+H]+
Name: Imatinib
Name: 4-[(4-methylpiperazin-1-yl)methyl]-N-[4-methyl-3-[(4-pyridin-3-ylpyrimidin-2-yl)amino]phenyl]benzamide
Formula: C29H31N7O
Exact mass: 493.2590086
SMILES: CC1=C(C=C(C=C1)NC(=O)C2=CC=C(C=C2)CN3CCN(CC3)C)NC4=NC=CC(=N4)C5=CN=CC=C5
InChI: InChI=1S/C29H31N7O/c1-21-5-10-25(18-27(21)34-29-31-13-11-26(33-29)24-4-3-12-30-19-24)32-28(37)23-8-6-22(7-9-23)20-36-16-14-35(2)15-17-36/h3-13,18-19H,14-17,20H2,1-2H3,(H,32,37)(H,31,33,34)
Instrument: Exploris 240 Thermo Scientific
Instrument type: LC-ESI-QFT
Ms type: MS2
Ion mode: POSITIVE
Ionization: ESI
Fragmentation mode: HCD
Collision energy: 25 % (nominal)
Resolution: 15000
Column name: XBridge C18 3.5um, 2.1x50mm, Waters
Retention time: 4.568 min
Base peak: 247.6363
Precursor m/z: 494.2663
Precursor type: [M+H]+
m/z	relative intensity	assigned
56.0495	21	C3H6N+
58.0651	48	C3H8N+
70.0651	54	C4H8N+
97.076	25	C5H9N2+
98.0838	41	C5H10N2+
99.0917	149	C5H11N2+
100.0995	21	C5H12N2+
111.0917	29	C6H11N2+
119.049	39	C8H7O+
121.076	10	C7H9N2+
131.0603	24	C8H7N2+
174.0909	10	C11H12NO+
189.1386	28	C12H17N2+
202.0777	86	C16H10+
217.1333	92	C13H17N2O+
221.1078	27	C15H13N2+
222.0912	155	C15H12NO+
247.0862	37	C16H11N2O+
264.1133	70	C16H14N3O+
265.097	60	C14H11N5O+
290.129	50	C18H16N3O+
377.1402	40	C24H17N4O+
379.1428	109	C23H17N5O+
394.1664	999	C24H20N5O+
476.2556	20	C29H30N7+
494.2659	14	C29H32N7O+
