Mass spectrum: Octyl beta-D-glucopyranoside; LC-ESI-QFT; MS2; CE: 15%; R=15000; [M-H]-
Name: Octyl beta-D-glucopyranoside
Name: Octyl glucoside
Name: 2-(hydroxymethyl)-6-octoxyoxane-3,4,5-triol
Formula: C14H28O6
Exact mass: 292.1885886
SMILES: CCCCCCCCOC1C(C(C(C(O1)CO)O)O)O
InChI: InChI=1S/C14H28O6/c1-2-3-4-5-6-7-8-19-14-13(18)12(17)11(16)10(9-15)20-14/h10-18H,2-9H2,1H3
Instrument: Q Exactive Plus
Instrument type: LC-ESI-QFT
Ms type: MS2
Ion mode: NEGATIVE
Ionization: ESI
Fragmentation mode: HCD
Collision energy: 15 % (nominal)
Resolution: 15000
Column name: XBridge C18 3.5um, 2.1x50mm, Waters
Retention time: 8.852 min
Base peak: 337.1869
Precursor m/z: 291.1813
Precursor type: [M-H]-
Precursor intensity: 623490.18
m/z	relative intensity	assigned
59.0138	161	C2H3O2-
71.0139	449	C3H3O2-
73.0295	253	C3H5O2-
85.0296	227	C4H5O2-
99.009	112	C4H3O3-
101.0245	999	C4H5O3-
113.0245	438	C5H5O3-
161.0455	531	C6H9O5-
