Mass spectrum: tau-Fluvalinate; LC-ESI-QFT; MS2; CE: 75%; R=15000; [M+H]+
Name: tau-Fluvalinate
Name: Fluvalinate
Name: [cyano-(3-phenoxyphenyl)methyl] 2-[2-chloro-4-(trifluoromethyl)anilino]-3-methylbutanoate
Formula: C26H22ClF3N2O3
Exact mass: 502.1271049
SMILES: CC(C)C(C(=O)OC(C#N)C1=CC(=CC=C1)OC2=CC=CC=C2)NC3=C(C=C(C=C3)C(F)(F)F)Cl
InChI: InChI=1S/C26H22ClF3N2O3/c1-16(2)24(32-22-12-11-18(14-21(22)27)26(28,29)30)25(33)35-23(15-31)17-7-6-10-20(13-17)34-19-8-4-3-5-9-19/h3-14,16,23-24,32H,1-2H3
Instrument: Q Exactive Plus
Instrument type: LC-ESI-QFT
Ms type: MS2
Ion mode: POSITIVE
Ionization: ESI
Fragmentation mode: HCD
Collision energy: 75 % (nominal)
Resolution: 15000
Column name: XBridge C18 3.5um, 2.1x50mm, Waters
Retention time: 16.348 min
Base peak: 503.1345
Precursor m/z: 503.1344
Precursor type: [M+H]+
Precursor intensity: 56663198.69
m/z	relative intensity	assigned
53.0386	17	C4H5+
77.0384	11	C6H5+
95.0491	51	C6H7O+
105.0446	15	C6H5N2+
127.0544	12	C10H7+
139.0542	16	C11H7+
140.0494	21	C10H6N+
140.062	10	C11H8+
145.0649	21	C10H9O+
152.062	455	C12H8+
153.0697	223	C12H9+
154.0652	16	C11H8N+
155.0488	18	C11H7O+
155.0603	22	C10H7N2+
168.0568	69	C12H8O+
169.0647	52	C12H9O+
178.0652	21	C13H8N+
179.0732	14	C13H9N+
180.0806	99	C13H10N+
181.0646	999	C13H9O+
190.065	20	C14H8N+
193.0517	14	C13H7NO+
205.9978	14	C8H4ClF3N+
206.0599	80	C14H8NO+
207.0677	64	C14H9NO+
