Mass spectrum: Fluazifop-butyl; LC-ESI-QFT; MS2; CE: 45%; R=15000; [M+H]+
Name: Fluazifop-butyl
Name: butyl 2-[4-[5-(trifluoromethyl)pyridin-2-yl]oxyphenoxy]propanoate
Formula: C19H20F3NO4
Exact mass: 383.1344428
SMILES: CCCCOC(=O)C(C)OC1=CC=C(OC2=CC=C(C=N2)C(F)(F)F)C=C1
InChI: InChI=1S/C19H20F3NO4/c1-3-4-11-25-18(24)13(2)26-15-6-8-16(9-7-15)27-17-10-5-14(12-23-17)19(20,21)22/h5-10,12-13H,3-4,11H2,1-2H3
Instrument: Q Exactive Plus
Instrument type: LC-ESI-QFT
Ms type: MS2
Ion mode: POSITIVE
Ionization: ESI
Fragmentation mode: HCD
Collision energy: 45 % (nominal)
Resolution: 15000
Column name: XBridge C18 3.5um, 2.1x50mm, Waters
Retention time: 13.597 min
Base peak: 384.142
Precursor m/z: 384.1417
Precursor type: [M+H]+
Precursor intensity: 286626437.05
m/z	relative intensity	assigned
57.0699	97	C4H9+
65.0386	29	C5H5+
91.0543	999	C7H7+
93.0337	12	C6H5O+
111.0443	11	C6H7O2+
119.0492	185	C8H7O+
121.0284	49	C7H5O2+
164.0318	40	C6H5F3NO+
213.0785	14	C13H11NO2+
226.084	25	C12H11F3N+
227.0553	60	C11H8F3NO+
236.0682	19	C13H9F3N+
238.0474	233	C12H7F3NO+
254.0424	132	C12H7F3NO2+
254.0785	519	C16H10F2N+
255.0502	168	C12H8F3NO2+
256.0579	132	C12H9F3NO2+
282.0737	903	C14H11F3NO2+
328.079	39	C15H13F3NO4+
