Mass spectrum: Chlorprothixene; LC-ESI-QFT; MS2; CE: 60%; R=17500; [M+H]+
Name: Chlorprothixene
Name: 3-(2-chlorothioxanthen-9-ylidene)-N,N-dimethylpropan-1-amine
Formula: C18H18ClNS
Exact mass: 315.084848256
SMILES: CN(C)CCC=C1C2=CC=CC=C2SC3=C1C=C(C=C3)Cl
InChI: InChI=1S/C18H18ClNS/c1-20(2)11-5-7-14-15-6-3-4-8-17(15)21-18-10-9-13(19)12-16(14)18/h3-4,6-10,12H,5,11H2,1-2H3
Instrument: Exploris 240 Orbitrap Thermo Scientific
Instrument type: LC-ESI-QFT
Ms type: MS2
Ion mode: POSITIVE
Ionization: ESI
Fragmentation mode: HCD
Collision energy: 60 % (nominal)
Resolution: 17500
Column name: XBridge C18 3.5um, 2.1x50mm, Waters
Retention time: 10.058 min
Base peak: 316.0919
Precursor m/z: 316.0921
Precursor type: [M+H]+
m/z	relative intensity	assigned
58.0651	208	C3H8N+
70.0651	328	C4H8N+
72.0808	39	C4H10N+
84.0808	362	C5H10N+
85.0886	152	C5H11N+
128.0618	34	C10H8+
162.0234	18	C10H7Cl+
202.0778	28	C16H10+
203.0854	104	C16H11+
210.0496	153	C14H10S+
212.0384	36	C14H9Cl+
221.0419	674	C15H9S+
231.0029	999	C13H8ClS+
234.0495	119	C16H10S+
235.0576	482	C16H11S+
236.0654	386	C16H12S+
238.0544	266	C16H11Cl+
245.0187	160	C14H10ClS+
255.0021	21	C15H8ClS+
256.0106	106	C15H9ClS+
269.0196	13	C16H10ClS+
271.0344	240	C16H12ClS+
273.0503	20	C16H14ClS+
