Mass spectrum: Iprovalicarb; LC-ESI-QFT; MS2; CE: 30%; R=15000; [M+H]+
Name: Iprovalicarb
Name: Isopropyl (3-methyl-1-{[1-(4-methylphenyl)ethyl]amino}-1-oxobutan-2-yl)carbamate
Name: propan-2-yl N-[3-methyl-1-[1-(4-methylphenyl)ethylamino]-1-oxobutan-2-yl]carbamate
Formula: C18H28N2O3
Exact mass: 320.2099928
SMILES: CC1=CC=C(C=C1)C(C)NC(=O)C(C(C)C)NC(=O)OC(C)C
InChI: InChI=1S/C18H28N2O3/c1-11(2)16(20-18(22)23-12(3)4)17(21)19-14(6)15-9-7-13(5)8-10-15/h7-12,14,16H,1-6H3,(H,19,21)(H,20,22)
Instrument: Exploris 240 Thermo Scientific
Instrument type: LC-ESI-QFT
Ms type: MS2
Ion mode: POSITIVE
Ionization: ESI
Fragmentation mode: HCD
Collision energy: 30 % (nominal)
Resolution: 15000
Column name: XBridge C18 3.5um, 2.1x50mm, Waters
Retention time: 9.865 min
Base peak: 321.2171
Precursor m/z: 321.2173
Precursor type: [M+H]+
m/z	relative intensity	assigned
116.0705	216	C5H10NO2+
117.1024	41	C5H13N2O+
119.0854	999	C9H11+
144.0654	72	C6H10NO3+
158.1173	24	C8H16NO2+
186.1121	30	C9H16NO3+
