Mass spectrum: Ketotifen; LC-ESI-QFT; MS2; CE: 50%; R=15000; [M+H]+
Name: Ketotifen
Name: 2-(1-methylpiperidin-4-ylidene)-6-thiatricyclo[8.4.0.03,7]tetradeca-1(14),3(7),4,10,12-pentaen-8-one
Formula: C19H19NOS
Exact mass: 309.1187352
SMILES: CN1CCC(=C2C3=C(C(=O)CC4=CC=CC=C42)SC=C3)CC1
InChI: InChI=1S/C19H19NOS/c1-20-9-6-13(7-10-20)18-15-5-3-2-4-14(15)12-17(21)19-16(18)8-11-22-19/h2-5,8,11H,6-7,9-10,12H2,1H3
Instrument: Exploris 240 Thermo Scientific
Instrument type: LC-ESI-QFT
Ms type: MS2
Ion mode: POSITIVE
Ionization: ESI
Fragmentation mode: HCD
Collision energy: 50 % (nominal)
Resolution: 15000
Column name: XBridge C18 3.5um, 2.1x50mm, Waters
Retention time: 4.523 min
Base peak: 310.1256
Precursor m/z: 310.126
Precursor type: [M+H]+
m/z	relative intensity	assigned
55.0417	28	C3H5N+
55.0543	20	C4H7+
58.0651	49	C3H8N+
67.0544	20	C5H7+
68.0495	103	C4H6N+
70.0651	67	C4H8N+
79.0544	73	C6H7+
81.0573	117	C5H7N+
82.0651	297	C5H8N+
91.0542	69	C7H7+
94.065	124	C6H8N+
96.0807	999	C6H10N+
97.0106	106	C5H5S+
111.0264	30	C6H7S+
115.0539	59	C9H7+
117.0701	39	C9H9+
123.0262	44	C7H7S+
128.0621	47	C10H8+
129.0698	101	C10H9+
135.0269	18	C8H7S+
141.0699	121	C11H9+
152.0623	45	C12H8+
153.0701	30	C12H9+
155.0854	21	C12H11+
165.0697	64	C13H9+
178.0779	141	C14H10+
179.0861	35	C14H11+
184.0343	124	C12H8S+
185.042	73	C12H9S+
189.07	58	C15H9+
190.0781	82	C15H10+
191.0851	52	C15H11+
197.0418	125	C13H9S+
202.0777	331	C16H10+
204.0941	33	C16H12+
205.1014	46	C16H13+
210.0499	22	C14H10S+
213.0371	101	C13H9OS+
221.042	128	C15H9S+
222.0504	25	C15H10S+
223.0578	34	C15H11S+
234.0492	105	C16H10S+
