Mass spectrum: Dasatinib; LC-ESI-QFT; MS2; CE: 60%; R=15000; [M+H]+
Name: Dasatinib
Name: N-(2-chloro-6-methylphenyl)-2-[[6-[4-(2-hydroxyethyl)piperazin-1-yl]-2-methylpyrimidin-4-yl]amino]-1,3-thiazole-5-carboxamide
Formula: C22H26ClN7O2S
Exact mass: 487.1557218
SMILES: CC1=C(C(=CC=C1)Cl)NC(=O)C2=CN=C(S2)NC3=CC(=NC(=N3)C)N4CCN(CC4)CCO
InChI: InChI=1S/C22H26ClN7O2S/c1-14-4-3-5-16(23)20(14)28-21(32)17-13-24-22(33-17)27-18-12-19(26-15(2)25-18)30-8-6-29(7-9-30)10-11-31/h3-5,12-13,31H,6-11H2,1-2H3,(H,28,32)(H,24,25,26,27)
Instrument: Exploris 240 Thermo Scientific
Instrument type: LC-ESI-QFT
Ms type: MS2
Ion mode: POSITIVE
Ionization: ESI
Fragmentation mode: HCD
Collision energy: 60 % (nominal)
Resolution: 15000
Column name: XBridge C18 3.5um, 2.1x50mm, Waters
Retention time: 5.562 min
Base peak: 488.1632
Precursor m/z: 488.163
Precursor type: [M+H]+
m/z	relative intensity	assigned
68.0495	21	C4H6N+
70.0651	129	C4H8N+
88.0756	98	C4H10NO+
93.0445	26	C5H5N2+
114.0912	66	C6H12NO+
125.0169	44	C5H5N2S+
135.0793	35	C7H9N3+
136.087	25	C7H10N3+
151.0981	17	C7H11N4+
152.0274	27	C6H6N3S+
161.0819	146	C8H9N4+
174.0898	24	C9H10N4+
176.0272	19	C8H6N3S+
176.0928	78	C8H10N5+
178.043	41	C8H8N3S+
187.0975	56	C10H11N4+
192.0587	19	C9H10N3S+
193.0542	216	C8H9N4S+
207.0695	39	C9H11N4S+
220.0648	18	C13H13ClO+
232.065	999	C14H13ClO+
233.0485	32	C10H9N4OS+
234.0808	108	C10H12N5S+
258.0807	250	C12H12N5S+
260.0598	62	C8H13ClN6S+
260.0967	42	C12H14N5S+
292.0312	63	C13H11ClN3OS+
317.0255	47	C17H7N3O2S+
319.134	141	C11H22ClN7S+
360.0683	136	C16H15ClN5OS+
401.095	399	C18H18ClN6OS+
