Mass spectrum: Oxasulfuron; LC-ESI-QFT; MS2; CE: 75%; R=15000; [M+H]+
Name: Oxasulfuron
Name: oxetan-3-yl 2-[(4,6-dimethylpyrimidin-2-yl)carbamoylsulfamoyl]benzoate
Formula: C17H18N4O6S
Exact mass: 406.0947053
SMILES: CC1=CC(=NC(=N1)NC(=O)NS(=O)(=O)C2=CC=CC=C2C(=O)OC3COC3)C
InChI: InChI=1S/C17H18N4O6S/c1-10-7-11(2)19-16(18-10)20-17(23)21-28(24,25)14-6-4-3-5-13(14)15(22)27-12-8-26-9-12/h3-7,12H,8-9H2,1-2H3,(H2,18,19,20,21,23)
Instrument: Exploris 240 Thermo Scientific
Instrument type: LC-ESI-QFT
Ms type: MS2
Ion mode: POSITIVE
Ionization: ESI
Fragmentation mode: HCD
Collision energy: 75 % (nominal)
Resolution: 15000
Column name: XBridge C18 3.5um, 2.1x50mm, Waters
Retention time: 5.484 min
Base peak: 407.1023
Precursor m/z: 407.102
Precursor type: [M+H]+
m/z	relative intensity	assigned
57.0336	82	C3H5O+
65.0386	72	C5H5+
66.0339	92	C4H4N+
67.0291	86	C3H3N2+
80.0497	33	C5H6N+
82.0651	23	C5H8N+
90.0339	216	C6H4N+
92.0493	16	C6H6N+
93.0337	16	C6H5O+
107.0604	275	C6H7N2+
120.0205	24	C7H4O2+
120.0442	26	C7H6NO+
121.0285	126	C7H5O2+
121.0398	36	C6H5N2O+
124.0871	200	C6H10N3+
125.071	884	C6H9N2O+
130.0404	26	C7H4N3+
146.0237	58	C8H4NO2+
150.0663	999	C7H8N3O+
