Mass spectrum: Oxazepam; LC-ESI-QFT; MS2; CE: 150%; R=15000; [M+H]+
Name: Oxazepam
Name: 7-chloro-3-hydroxy-5-phenyl-1,3-dihydro-1,4-benzodiazepin-2-one
Formula: C15H11ClN2O2
Exact mass: 286.0509053
SMILES: OC1N=C(C2=CC=CC=C2)C2=CC(Cl)=CC=C2NC1=O
InChI: InChI=1S/C15H11ClN2O2/c16-10-6-7-12-11(8-10)13(9-4-2-1-3-5-9)18-15(20)14(19)17-12/h1-8,15,20H,(H,17,19)
Instrument: Q Exactive Plus
Instrument type: LC-ESI-QFT
Ms type: MS2
Ion mode: POSITIVE
Ionization: ESI
Fragmentation mode: HCD
Collision energy: 150 % (nominal)
Resolution: 15000
Column name: XBridge C18 3.5um, 2.1x50mm, Waters
Retention time: 7.837 min
Base peak: 287.0581
Precursor m/z: 287.0582
Precursor type: [M+H]+
Precursor intensity: 396230952
m/z	relative intensity	assigned
50.0151	252	C4H2+
51.0229	567	C4H3+
53.0021	22	C3HO+
53.0386	251	C4H5+
61.9792	42	CHClN+
62.015	17	C5H2+
63.0229	180	C5H3+
64.018	36	C4H2N+
64.0307	27	C5H4+
65.0022	11	C4HO+
65.0385	76	C5H5+
66.0464	256	C5H6+
72.9839	148	C3H2Cl+
74.015	167	C6H2+
75.0229	435	C6H3+
76.0181	24	C5H2N+
76.0306	15	C6H4+
77.0385	352	C6H5+
81.0335	40	C5H5O+
84.9838	42	C4H2Cl+
90.0339	107	C6H4N+
91.0417	260	C6H5N+
92.0493	51	C6H6N+
93.0573	336	C6H7N+
95.0491	999	C6H7O+
98.9997	142	C5H4Cl+
99.0102	122	C7HN+
100.0181	748	C7H2N+
102.0461	17	C8H6+
104.0494	148	C7H6N+
105.0447	253	C6H5N2+
108.9841	42	C6H2Cl+
110.9995	32	C6H4Cl+
116.0369	21	C7H4N2+
117.0448	25	C7H5N2+
118.0286	105	C7H4NO+
118.0524	130	C7H6N2+
123.9947	80	C6H3ClN+
129.01	49	C6H6ClO+
139.0059	67	C6H4ClN2+
139.0543	45	C11H7+
140.0491	29	C10H6N+
150.0463	149	C12H6+
151.0544	25	C12H7+
152.0618	109	C12H8+
164.001	60	C10N2O+
166.0651	57	C12H8N+
167.0732	41	C12H9N+
169.0646	196	C12H9O+
170.0602	12	C11H8NO+
177.057	113	C13H7N+
178.0649	49	C13H8N+
179.0598	52	C12H7N2+
193.0757	95	C13H9N2+
