Mass spectrum: Boscalid; LC-ESI-QFT; MS2; CE: 90%; R=15000; [M+H]+
Name: Boscalid
Name: 2-chloro-N-[2-(4-chlorophenyl)phenyl]pyridine-3-carboxamide
Formula: C18H12Cl2N2O
Exact mass: 342.0326684
SMILES: ClC1=CC=C(C=C1)C1=C(NC(=O)C2=C(Cl)N=CC=C2)C=CC=C1
InChI: InChI=1S/C18H12Cl2N2O/c19-13-9-7-12(8-10-13)14-4-1-2-6-16(14)22-18(23)15-5-3-11-21-17(15)20/h1-11H,(H,22,23)
Instrument: Q Exactive Plus
Instrument type: LC-ESI-QFT
Ms type: MS2
Ion mode: POSITIVE
Ionization: ESI
Fragmentation mode: HCD
Collision energy: 90 % (nominal)
Resolution: 15000
Column name: XBridge C18 3.5um, 2.1x50mm, Waters
Retention time: 9.173 min
Base peak: 343.0403
Precursor m/z: 343.0399
Precursor type: [M+H]+
Precursor intensity: 188620855.64
m/z	relative intensity	assigned
50.0151	83	C4H2+
51.0229	184	C4H3+
61.9792	26	CHClN+
66.0338	22	C4H4N+
76.0181	392	C5H2N+
78.0338	522	C5H4N+
84.984	38	C4H2Cl+
96.0444	802	C5H6NO+
111.9949	451	C5H3ClN+
112.0393	303	C2H9ClN2O+
113.0025	21	C5H4ClN+
114.0102	36	C5H5ClN+
130.0054	351	C5H5ClNO+
139.9899	69	C6H3ClNO+
140.0494	68	C10H6N+
144.9924	11	C2H7Cl2N2O+
152.062	142	C12H8+
166.0522	13	C11H6N2+
166.065	14	C12H8N+
167.0598	18	C11H7N2+
167.0725	11	C12H9N+
168.0683	20	C11H8N2+
169.0646	11	C12H9O+
176.0623	12	C14H8+
177.0574	107	C13H7N+
189.0699	74	C15H9+
196.0634	18	C12H8N2O+
200.0625	32	C16H8+
201.0572	19	C15H7N+
203.0733	62	C15H9N+
204.0815	43	C15H10N+
214.065	40	C16H8N+
215.0733	66	C16H9N+
216.0814	203	C16H10N+
218.0832	53	C15H10N2+
225.058	46	C17H7N+
226.0656	47	C17H8N+
227.073	222	C17H9N+
228.0819	135	C17H10N+
241.076	72	C17H9N2+
242.0837	581	C17H10N2+
243.0916	713	C17H11N2+
244.0755	80	C17H10NO+
244.0996	95	C17H12N2+
252.0679	84	C18H8N2+
253.076	359	C18H9N2+
254.0851	78	C18H10N2+
269.0705	46	C18H9N2O+
270.0786	184	C18H10N2O+
271.0864	999	C18H11N2O+
272.0943	140	C18H12N2O+
305.0481	24	C18H10ClN2O+
