Mass spectrum: 3-Desmethyltrimethoprim; LC-ESI-QFT; MS2; CE: 75%; R=17500; [M+H]+
Name: 3-Desmethyltrimethoprim
Name: 5-[(2,4-diaminopyrimidin-5-yl)methyl]-2,3-dimethoxyphenol
Formula: C13H16N4O3
Exact mass: 276.1222404
SMILES: COC1=CC(=CC(=C1OC)O)CC2=CN=C(N=C2N)N
InChI: InChI=1S/C13H16N4O3/c1-19-10-5-7(4-9(18)11(10)20-2)3-8-6-16-13(15)17-12(8)14/h4-6,18H,3H2,1-2H3,(H4,14,15,16,17)
Instrument: Exploris 240 Orbitrap Thermo Scientific
Instrument type: LC-ESI-QFT
Ms type: MS2
Ion mode: POSITIVE
Ionization: ESI
Fragmentation mode: HCD
Collision energy: 75 % (nominal)
Resolution: 17500
Column name: XBridge C18 3.5um, 2.1x50mm, Waters
Retention time: 2.604 min
Base peak: 277.1292
Precursor m/z: 277.1295
Precursor type: [M+H]+
m/z	relative intensity	assigned
60.0555	8	CH6N3+
81.0448	86	C4H5N2+
110.0586	60	C4H6N4+
111.0664	21	C4H7N4+
123.0665	546	C5H7N4+
124.0743	30	C5H8N4+
147.0666	8	C7H7N4+
148.0745	21	C7H8N4+
161.082	13	C8H9N4+
173.0823	31	C9H9N4+
187.0978	151	C10H11N4+
188.1055	72	C10H12N4+
203.0925	8	C10H11N4O+
216.0761	4	C11H10N3O2+
216.1006	86	C11H12N4O+
219.0879	225	C10H11N4O2+
231.0878	72	C11H11N4O2+
232.095	41	C11H12N4O2+
233.1035	111	C11H13N4O2+
243.0873	31	C12H11N4O2+
245.1032	39	C12H13N4O2+
247.0817	40	C11H11N4O3+
261.0984	999	C12H13N4O3+
262.1059	13	C12H14N4O3+
