Mass spectrum: Fluralaner; LC-ESI-QFT; MS2; CE: 75%; R=17500; [M-H]-
Name: Fluralaner
Name: 4-[5-(3,5-dichlorophenyl)-5-(trifluoromethyl)-4H-1,2-oxazol-3-yl]-2-methyl-N-[2-oxo-2-(2,2,2-trifluoroethylamino)ethyl]benzamide
Formula: C22H17Cl2F6N3O3
Exact mass: 555.055116084
SMILES: CC1=C(C=CC(=C1)C2=NOC(C2)(C3=CC(=CC(=C3)Cl)Cl)C(F)(F)F)C(=O)NCC(=O)NCC(F)(F)F
InChI: InChI=1S/C22H17Cl2F6N3O3/c1-11-4-12(2-3-16(11)19(35)31-9-18(34)32-10-21(25,26)27)17-8-20(36-33-17,22(28,29)30)13-5-14(23)7-15(24)6-13/h2-7H,8-10H2,1H3,(H,31,35)(H,32,34)
Instrument: Exploris 240 Orbitrap Thermo Scientific
Instrument type: LC-ESI-QFT
Ms type: MS2
Ion mode: NEGATIVE
Ionization: ESI
Fragmentation mode: HCD
Collision energy: 75 % (nominal)
Resolution: 17500
Column name: XBridge C18 3.5um, 2.1x50mm, Waters
Retention time: 13.362 min
Base peak: 311.1686
Precursor m/z: 554.0478
Precursor type: [M-H]-
m/z	relative intensity	assigned
65.0147	31	C3HN2-
65.9985	999	C3NO-
67.0302	69	C3H3N2-
68.9957	574	CF3-
76.0006	53	C2F2N-
86.0047	120	C3HFNO-
94.0173	155	C4H2N2O-
95.0251	606	C4H3N2O-
103.9953	38	C3F2NO-
113.0156	522	C4H2FN2O-
115.0314	23	C4H4FN2O-
116.0508	40	C8H6N-
130.066	39	CH9F5N-
142.03	45	C9H4NO-
144.9619	49	C6H3Cl2-
161.0169	24	C5H3F2N2O2-
167.0611	102	C3H8F5N2-
168.046	41	C11H6NO-
169.0403	101	C10H5N2O-
169.9568	199	C7H2Cl2N-
183.0564	78	C11H7N2O-
185.0353	144	C2H6F5N2O2-
199.051	45	C8H11ClF3-
211.9676	488	C9H4Cl2NO-
219.9904	62	C7F4N2O2-
