Mass spectrum: 2-Hydroxynevirapine; LC-ESI-QFT; MS2; CE: 120%; R=17500; [M+H]+
Name: 2-Hydroxynevirapine
Name: 2-Hydroxy Nevirapine
Name: 2-cyclopropyl-7-methyl-2,4,9,15-tetrazatricyclo[9.4.0.03,8]pentadeca-1(11),3(8),6,12,14-pentaene-5,10-dione
Formula: C15H14N4O2
Exact mass: 282.1116757
SMILES: CC1=CC(=O)NC2=C1NC(=O)C3=C(N2C4CC4)N=CC=C3
InChI: InChI=1S/C15H14N4O2/c1-8-7-11(20)17-14-12(8)18-15(21)10-3-2-6-16-13(10)19(14)9-4-5-9/h2-3,6-7,9H,4-5H2,1H3,(H,17,20)(H,18,21)
Instrument: Exploris 240 Orbitrap Thermo Scientific
Instrument type: LC-ESI-QFT
Ms type: MS2
Ion mode: POSITIVE
Ionization: ESI
Fragmentation mode: HCD
Collision energy: 120 % (nominal)
Resolution: 17500
Column name: XBridge C18 3.5um, 2.1x50mm, Waters
Retention time: 3.847 min
Base peak: 283.1187
Precursor m/z: 283.119
Precursor type: [M+H]+
m/z	relative intensity	assigned
51.0229	195	C4H3+
52.0309	45	C4H4+
53.0386	70	C4H5+
65.0385	50	C5H5+
66.0338	136	C4H4N+
67.0417	79	C4H5N+
68.0494	999	C4H6N+
77.0385	63	C6H5+
78.0338	950	C5H4N+
79.0417	407	C5H5N+
79.0541	51	C6H7+
80.0496	74	C5H6N+
89.0388	55	C7H5+
91.0543	135	C7H7+
92.0368	123	C5H4N2+
93.0447	507	C5H5N2+
93.0572	57	C6H7N+
94.0289	46	C5H4NO+
94.0526	42	C5H6N2+
95.0604	263	C5H7N2+
96.0443	302	C5H6NO+
96.0684	65	C5H8N2+
103.0292	58	C6H3N2+
104.0496	57	C7H6N+
105.0447	112	C6H5N2+
106.0288	23	C6H4NO+
106.0653	41	C7H8N+
116.0495	133	C8H6N+
117.0574	108	C8H7N+
118.0527	164	C7H6N2+
119.0481	144	C6H5N3+
119.0607	69	C7H7N2+
120.0554	188	C6H6N3+
121.0394	236	C6H5N2O+
124.0392	40	C6H6NO2+
131.0603	310	C8H7N2+
132.0682	52	C8H8N2+
133.0758	195	C8H9N2+
134.0601	38	C8H8NO+
142.0524	58	C9H6N2+
143.0605	80	C9H7N2+
144.0557	84	C8H6N3+
147.0557	60	C8H7N2O+
148.0504	56	C7H6N3O+
155.0609	42	C10H7N2+
156.0562	37	C9H6N3+
158.0714	109	C9H8N3+
161.071	79	C9H9N2O+
170.0716	94	C10H8N3+
185.0821	353	C10H9N4+
198.0663	194	C11H8N3O+
213.0772	104	C11H9N4O+
