Mass spectrum: Pyrimethamine; LC-ESI-QFT; MS2; CE: 60%; R=15000; [M+H]+
Name: Pyrimethamine
Name: 5-(4-chlorophenyl)-6-ethylpyrimidine-2,4-diamine
Formula: C12H13ClN4
Exact mass: 248.0828741
SMILES: CCC1=NC(N)=NC(N)=C1C1=CC=C(Cl)C=C1
InChI: InChI=1S/C12H13ClN4/c1-2-9-10(11(14)17-12(15)16-9)7-3-5-8(13)6-4-7/h3-6H,2H2,1H3,(H4,14,15,16,17)
Instrument: Q Exactive Plus
Instrument type: LC-ESI-QFT
Ms type: MS2
Ion mode: POSITIVE
Ionization: ESI
Fragmentation mode: HCD
Collision energy: 60 % (nominal)
Resolution: 15000
Column name: XBridge C18 3.5um, 2.1x50mm, Waters
Retention time: 5.158 min
Base peak: 249.0903
Precursor m/z: 249.0902
Precursor type: [M+H]+
Precursor intensity: 1238556926.84
m/z	relative intensity	assigned
56.0495	18	C3H6N+
125.0151	16	C7H6Cl+
128.0621	27	C10H8+
152.0262	62	C8H7ClN+
155.0729	19	C11H9N+
163.031	85	C10H8Cl+
177.0214	762	C9H6ClN2+
190.0417	25	C11H9ClN+
196.087	21	C12H10N3+
197.095	19	C12H11N3+
198.0897	19	C11H10N4+
207.0684	82	C11H12ClN2+
213.1135	32	C12H13N4+
233.0588	761	C11H10ClN4+
234.0668	56	C11H11ClN4+
249.0901	999	C12H14ClN4+
