Mass spectrum: Flurprimidol; LC-ESI-QFT; MS2; CE: 120%; R=15000; [M+H]+
Name: Flurprimidol
Name: 2-methyl-1-pyrimidin-5-yl-1-[4-(trifluoromethoxy)phenyl]propan-1-ol
Formula: C15H15F3N2O2
Exact mass: 312.1085624
SMILES: CC(C)C(C1=CC=C(C=C1)OC(F)(F)F)(C2=CN=CN=C2)O
InChI: InChI=1S/C15H15F3N2O2/c1-10(2)14(21,12-7-19-9-20-8-12)11-3-5-13(6-4-11)22-15(16,17)18/h3-10,21H,1-2H3
Instrument: Exploris 240 Thermo Scientific
Instrument type: LC-ESI-QFT
Ms type: MS2
Ion mode: POSITIVE
Ionization: ESI
Fragmentation mode: HCD
Collision energy: 120 % (nominal)
Resolution: 15000
Column name: XBridge C18 3.5um, 2.1x50mm, Waters
Retention time: 9.380 min
Base peak: 313.1155
Precursor m/z: 313.1158
Precursor type: [M+H]+
m/z	relative intensity	assigned
52.0182	64	C3H2N+
54.0338	651	C3H4N+
68.9945	82	CF3+
75.0228	161	C6H3+
77.0388	64	C6H5+
80.0369	237	C4H4N2+
81.0447	999	C4H5N2+
83.0293	33	C5H4F+
91.054	89	C7H7+
95.0291	176	C6H4F+
102.0466	45	C8H6+
103.0543	159	C8H7+
113.0397	349	C6H6FO+
115.0542	88	C9H7+
117.0573	323	C8H7N+
118.0653	78	C8H8N+
119.0494	32	C8H7O+
123.0352	749	C6H4FN2+
128.0496	146	C9H6N+
129.0451	61	C8H5N2+
130.0651	309	C9H8N+
145.0522	104	C9H7NO+
146.0603	52	C9H8NO+
199.0363	132	C10H6F3O+
214.0472	342	C10H7F3NO+
242.0423	147	C14H6F2NO+
