Mass spectrum: Quinine; LC-ESI-QFT; MS2; CE: 120%; R=17500; [M+H]+
Name: Quinine
Name: Cinchonan-9-ol, 6`-methoxy-, (8alpha,9R)-
Name: (5-ethenyl-1-azabicyclo[2.2.2]octan-2-yl)-(6-methoxyquinolin-4-yl)methanol
Formula: C20H24N2O2
Exact mass: 324.183778
SMILES: COC1=CC2=C(C=CN=C2C=C1)C(C3CC4CCN3CC4C=C)O
InChI: InChI=1S/C20H24N2O2/c1-3-13-12-22-9-7-14(13)10-19(22)20(23)16-6-8-21-18-5-4-15(24-2)11-17(16)18/h3-6,8,11,13-14,19-20,23H,1,7,9-10,12H2,2H3
Instrument: Exploris 240 Orbitrap Thermo Scientific
Instrument type: LC-ESI-QFT
Ms type: MS2
Ion mode: POSITIVE
Ionization: ESI
Fragmentation mode: HCD
Collision energy: 120 % (nominal)
Resolution: 17500
Column name: XBridge C18 3.5um, 2.1x50mm, Waters
Retention time: 4.008 min
Base peak: 325.1906
Precursor m/z: 325.1911
Precursor type: [M+H]+
m/z	relative intensity	assigned
53.0386	607	C4H5+
55.0543	257	C4H7+
56.0495	68	C3H6N+
65.0386	174	C5H5+
66.0466	79	C5H6+
67.0417	113	C4H5N+
67.0541	260	C5H7+
68.0496	151	C4H6N+
77.0385	412	C6H5+
79.0542	999	C6H7+
80.0494	309	C5H6N+
81.0698	265	C6H9+
82.065	239	C5H8N+
89.0387	41	C7H5+
91.0541	232	C7H7+
93.0573	54	C6H7N+
94.0653	110	C6H8N+
95.0493	145	C6H7O+
95.073	39	C6H9N+
102.0464	115	C8H6+
103.0545	95	C8H7+
105.0445	123	C6H5N2+
106.0651	61	C7H8N+
108.0809	74	C7H10N+
115.0544	309	C9H7+
116.0498	81	C8H6N+
117.0573	576	C8H7N+
118.0652	58	C8H8N+
128.05	40	C9H6N+
129.0574	272	C9H7N+
130.0651	179	C9H8N+
131.0729	109	C9H9N+
141.057	292	C10H7N+
142.0651	222	C10H8N+
143.0728	293	C10H9N+
144.0806	85	C10H10N+
145.0524	127	C9H7NO+
145.0649	40	C10H9O+
146.06	88	C9H8NO+
153.057	41	C11H7N+
154.0649	551	C11H8N+
155.0737	168	C11H9N+
157.0525	89	C10H7NO+
158.06	157	C10H8NO+
160.0755	105	C10H10NO+
166.0655	91	C12H8N+
167.0731	226	C12H9N+
168.0679	84	C11H8N2+
169.0521	138	C11H7NO+
170.0597	141	C11H8NO+
172.0754	214	C11H10NO+
180.0815	77	C13H10N+
182.0602	111	C12H8NO+
183.068	74	C12H9NO+
191.0733	53	C14H9N+
204.0805	37	C15H10N+
