Mass spectrum: Meropenem; LC-ESI-QFT; MS2; CE: 30%; R=15000; [M-H]-
Name: Meropenem
Name: 3-[5-(dimethylcarbamoyl)pyrrolidin-3-yl]sulfanyl-6-(1-hydroxyethyl)-4-methyl-7-oxo-1-azabicyclo[3.2.0]hept-2-ene-2-carboxylic acid
Formula: C17H25N3O5S
Exact mass: 383.1514919
SMILES: CC1C2C(C(=O)N2C(=C1SC3CC(NC3)C(=O)N(C)C)C(=O)O)C(C)O
InChI: InChI=1S/C17H25N3O5S/c1-7-12-11(8(2)21)16(23)20(12)13(17(24)25)14(7)26-9-5-10(18-6-9)15(22)19(3)4/h7-12,18,21H,5-6H2,1-4H3,(H,24,25)
Instrument: Exploris 240 Thermo Scientific
Instrument type: LC-ESI-QFT
Ms type: MS2
Ion mode: NEGATIVE
Ionization: ESI
Fragmentation mode: HCD
Collision energy: 30 % (nominal)
Resolution: 15000
Column name: XBridge C18 3.5um, 2.1x50mm, Waters
Retention time: 2.467 min
Base peak: 382.1443
Precursor m/z: 382.1442
Precursor type: [M-H]-
m/z	relative intensity	assigned
110.0195	70	C6H6S-
111.0151	40	C5H5NS-
112.0225	190	C5H6NS-
120.0455	83	C7H6NO-
126.0145	826	C6H6OS-
127.0223	453	C6H7OS-
137.061	41	C8H9O2-
152.0302	457	C8H8OS-
153.0251	45	C7H7NOS-
153.0384	119	C8H9OS-
154.0332	999	C7H8NOS-
170.0408	864	C8H10O2S-
173.0755	805	C7H13N2OS-
197.0517	653	C9H11NO2S-
198.0595	924	C9H12NO2S-
251.1226	53	C13H19N2OS-
252.1178	85	C12H18N3OS-
267.1175	314	C13H19N2O2S-
277.1561	39	C15H21N2O3-
293.133	436	C15H21N2O2S-
311.1439	44	C15H23N2O3S-
