Mass spectrum: Prazosin; LC-ESI-QFT; MS2; CE: 60%; R=17500; [M+H]+
Name: Prazosin
Name: [4-(4-amino-6,7-dimethoxyquinazolin-2-yl)piperazin-1-yl]-(furan-2-yl)methanone
Formula: C19H21N5O4
Exact mass: 383.159354152
SMILES: COC1=C(C=C2C(=C1)C(=NC(=N2)N3CCN(CC3)C(=O)C4=CC=CO4)N)OC
InChI: InChI=1S/C19H21N5O4/c1-26-15-10-12-13(11-16(15)27-2)21-19(22-17(12)20)24-7-5-23(6-8-24)18(25)14-4-3-9-28-14/h3-4,9-11H,5-8H2,1-2H3,(H2,20,21,22)
Instrument: Exploris 240 Orbitrap Thermo Scientific
Instrument type: LC-ESI-QFT
Ms type: MS2
Ion mode: POSITIVE
Ionization: ESI
Fragmentation mode: HCD
Collision energy: 60 % (nominal)
Resolution: 17500
Column name: XBridge C18 3.5um, 2.1x50mm, Waters
Retention time: 4.835 min
Base peak: 384.1665
Precursor m/z: 384.1666
Precursor type: [M+H]+
m/z	relative intensity	assigned
70.0653	29	C4H8N+
95.0128	999	C5H3O2+
120.0445	43	C7H6NO+
138.055	446	C7H8NO2+
164.0707	205	C9H10NO2+
202.0846	17	C10H10N4O+
203.0929	86	C10H11N4O+
204.0769	43	C10H10N3O2+
205.0723	34	C9H9N4O2+
217.0724	14	C10H9N4O2+
220.0963	15	C12H14NO3+
221.1034	55	C10H13N4O2+
222.0879	15	C10H12N3O3+
231.0875	356	C11H11N4O2+
232.0953	181	C11H12N4O2+
233.1028	63	C11H13N4O2+
245.1033	45	C12H13N4O2+
247.1189	533	C12H15N4O2+
259.1187	11	C13H15N4O2+
272.1136	8	C13H14N5O2+
288.1445	17	C14H18N5O2+
322.1302	18	C17H16N5O2+
325.0936	22	C16H13N4O4+
340.1404	22	C17H18N5O3+
341.1261	25	C17H17N4O4+
350.1252	75	C18H16N5O3+
366.1556	42	C19H20N5O3+
368.1358	143	C18H18N5O4+
384.1664	55	C19H22N5O4+
