Mass spectrum: Febuxostat; LC-ESI-QFT; MS2; CE: 180%; R=15000; [M+H]+
Name: Febuxostat
Name: 2-[3-cyano-4-(2-methylpropoxy)phenyl]-4-methyl-1,3-thiazole-5-carboxylic acid
Formula: C16H16N2O3S
Exact mass: 316.0881634
SMILES: CC1=C(SC(=N1)C2=CC(=C(C=C2)OCC(C)C)C#N)C(=O)O
InChI: InChI=1S/C16H16N2O3S/c1-9(2)8-21-13-5-4-11(6-12(13)7-17)15-18-10(3)14(22-15)16(19)20/h4-6,9H,8H2,1-3H3,(H,19,20)
Instrument: Q Exactive Plus
Instrument type: LC-ESI-QFT
Ms type: MS2
Ion mode: POSITIVE
Ionization: ESI
Fragmentation mode: HCD
Collision energy: 180 % (nominal)
Resolution: 15000
Column name: XBridge C18 3.5um, 2.1x50mm, Waters
Retention time: 11.644 min
Base peak: 317.0954
Precursor m/z: 317.0954
Precursor type: [M+H]+
Precursor intensity: 288937567.42
m/z	relative intensity	assigned
50.0151	155	C4H2+
51.0229	153	C4H3+
58.9949	34	C2H3S+
59.9664	285	COS+
63.0229	999	C5H3+
64.0181	131	C4H2N+
65.0386	68	C5H5+
68.9793	108	C3HS+
70.9949	440	C3H3S+
72.0027	46	C3H4S+
75.0229	113	C6H3+
76.018	46	C5H2N+
76.0307	102	C6H4+
77.0386	14	C6H5+
81.0334	32	C5H5O+
89.0386	64	C7H5+
90.0338	273	C6H4N+
95.0491	39	C6H7O+
100.0181	85	C7H2N+
102.034	33	C7H4N+
118.0287	18	C7H4NO+
