Mass spectrum: Ketotifen; LC-ESI-QFT; MS2; CE: 60%; R=15000; [M+H]+
Name: Ketotifen
Name: 2-(1-methylpiperidin-4-ylidene)-6-thiatricyclo[8.4.0.03,7]tetradeca-1(14),3(7),4,10,12-pentaen-8-one
Formula: C19H19NOS
Exact mass: 309.1187352
SMILES: CN1CCC(=C2C3=C(C(=O)CC4=CC=CC=C42)SC=C3)CC1
InChI: InChI=1S/C19H19NOS/c1-20-9-6-13(7-10-20)18-15-5-3-2-4-14(15)12-17(21)19-16(18)8-11-22-19/h2-5,8,11H,6-7,9-10,12H2,1H3
Instrument: Exploris 240 Thermo Scientific
Instrument type: LC-ESI-QFT
Ms type: MS2
Ion mode: POSITIVE
Ionization: ESI
Fragmentation mode: HCD
Collision energy: 60 % (nominal)
Resolution: 15000
Column name: XBridge C18 3.5um, 2.1x50mm, Waters
Retention time: 4.523 min
Base peak: 310.1256
Precursor m/z: 310.126
Precursor type: [M+H]+
m/z	relative intensity	assigned
53.0386	62	C4H5+
67.0544	100	C5H7+
68.0495	210	C4H6N+
79.0542	176	C6H7+
80.0495	140	C5H6N+
81.0573	367	C5H7N+
82.0651	451	C5H8N+
91.0541	209	C7H7+
94.0653	226	C6H8N+
96.0808	897	C6H10N+
97.0106	233	C5H5S+
103.0544	41	C8H7+
115.0543	343	C9H7+
127.054	41	C10H7+
128.0622	270	C10H8+
129.0699	78	C10H9+
141.0699	385	C11H9+
152.0621	299	C12H8+
165.0697	413	C13H9+
171.0261	61	C11H7S+
178.0775	375	C14H10+
179.0852	60	C14H11+
184.0338	412	C12H8S+
189.0702	400	C15H9+
190.0774	145	C15H10+
202.0777	999	C16H10+
208.0337	176	C14H8S+
215.0858	107	C17H11+
221.0417	285	C15H9S+
234.0498	117	C16H10S+
