Mass spectrum: Chlorpyrifos-methyl; LC-ESI-QFT; MS2; CE: 60%; R=15000; [M+H]+
Name: Chlorpyrifos-methyl
Name: dimethoxy-sulfanylidene-(3,5,6-trichloropyridin-2-yl)oxy-lambda5-phosphane
Formula: C7H7Cl3NO3PS
Exact mass: 320.8949838
SMILES: COP(=S)(OC)OC1=NC(Cl)=C(Cl)C=C1Cl
InChI: InChI=1S/C7H7Cl3NO3PS/c1-12-15(16,13-2)14-7-5(9)3-4(8)6(10)11-7/h3H,1-2H3
Instrument: Q Exactive Plus
Instrument type: LC-ESI-QFT
Ms type: MS2
Ion mode: POSITIVE
Ionization: ESI
Fragmentation mode: HCD
Collision energy: 60 % (nominal)
Resolution: 15000
Column name: XBridge C18 3.5um, 2.1x50mm, Waters
Retention time: 12.587 min
Base peak: 321.9024
Precursor m/z: 321.9023
Precursor type: [M+H]+
Precursor intensity: 36988659.53
m/z	relative intensity	assigned
59.9665	12	COS+
62.0185	76	C2H6S+
78.9943	567	CH4O2P+
93.01	10	C2H6O2P+
124.982	111	C2H6O2PS+
127.0155	157	C3H8ClO3+
142.9926	999	C2H8O3PS+
176.9198	20	C4HClNOPS+
179.9172	11	C5HCl3N+
197.9274	29	C4H3Cl2NO2P+
229.8995	63	C5H3Cl3NOS+
289.8758	27	C6H4Cl3NO2PS+
