Mass spectrum: Phenylethylmalonamide; LC-ESI-QFT; MS2; CE: 180%; R=17500; [M+H]+
Name: Phenylethylmalonamide
Name: PEMA
Name: 2-ethyl-2-phenylpropanediamide
Formula: C11H14N2O2
Exact mass: 206.1055277
SMILES: CCC(C1=CC=CC=C1)(C(=O)N)C(=O)N
InChI: InChI=1S/C11H14N2O2/c1-2-11(9(12)14,10(13)15)8-6-4-3-5-7-8/h3-7H,2H2,1H3,(H2,12,14)(H2,13,15)
Instrument: Exploris 240 Orbitrap Thermo Scientific
Instrument type: LC-ESI-QFT
Ms type: MS2
Ion mode: POSITIVE
Ionization: ESI
Fragmentation mode: HCD
Collision energy: 180 % (nominal)
Resolution: 17500
Column name: XBridge C18 3.5um, 2.1x50mm, Waters
Retention time: 3.165 min
Base peak: 207.1127
Precursor m/z: 207.1128
Precursor type: [M+H]+
m/z	relative intensity	assigned
63.023	77	C5H3+
65.0386	998	C5H5+
77.0386	80	C6H5+
79.0543	36	C6H7+
89.0386	89	C7H5+
91.0542	999	C7H7+
95.0492	25	C6H7O+
103.0544	10	C8H7+
104.0497	36	C7H6N+
105.045	21	C6H5N2+
115.054	146	C9H7+
