Mass spectrum: Suberoylanilide hydroxamic acid; LC-ESI-QFT; MS2; CE: 75%; R=15000; [M+H]+
Name: Suberoylanilide hydroxamic acid
Name: Vorinostat
Name: N`-hydroxy-N-phenyloctanediamide
Formula: C14H20N2O3
Exact mass: 264.1473925
SMILES: C1=CC=C(C=C1)NC(=O)CCCCCCC(=O)NO
InChI: InChI=1S/C14H20N2O3/c17-13(15-12-8-4-3-5-9-12)10-6-1-2-7-11-14(18)16-19/h3-5,8-9,19H,1-2,6-7,10-11H2,(H,15,17)(H,16,18)
Instrument: Exploris 240 Thermo Scientific
Instrument type: LC-ESI-QFT
Ms type: MS2
Ion mode: POSITIVE
Ionization: ESI
Fragmentation mode: HCD
Collision energy: 75 % (nominal)
Resolution: 15000
Column name: XBridge C18 3.5um, 2.1x50mm, Waters
Retention time: 4.916 min
Base peak: 265.1544
Precursor m/z: 265.1547
Precursor type: [M+H]+
m/z	relative intensity	assigned
53.0387	42	C4H5+
55.0178	212	C3H3O+
55.0542	929	C4H7+
67.0542	182	C5H7+
69.0336	29	C4H5O+
69.0699	328	C5H9+
77.0386	187	C6H5+
79.0544	89	C6H7+
81.0701	54	C6H9+
83.0855	309	C6H11+
84.081	35	C5H10N+
91.0542	131	C7H7+
92.0495	420	C6H6N+
93.0697	249	C7H9+
94.0651	999	C6H8N+
95.0491	152	C6H7O+
95.0854	71	C7H11+
103.0542	48	C8H7+
104.0494	134	C7H6N+
105.0448	69	C6H5N2+
111.0802	133	C7H11O+
120.0443	428	C7H6NO+
126.0916	27	C7H12NO+
130.0656	19	C9H8N+
132.0808	45	C9H10N+
139.0757	40	C8H11O2+
