Mass spectrum: Hydroxytorasemide; LC-ESI-QFT; MS2; CE: 150%; R=17500; [M-H]-
Name: Hydroxytorasemide
Name: Torasemide metabolite M1
Name: 1-[4-[3-(hydroxymethyl)anilino]pyridin-3-yl]sulfonyl-3-propan-2-ylurea
Formula: C16H20N4O4S
Exact mass: 364.1205261
SMILES: CC(C)NC(=O)NS(=O)(=O)C1=C(C=CN=C1)NC2=CC=CC(=C2)CO
InChI: InChI=1S/C16H20N4O4S/c1-11(2)18-16(22)20-25(23,24)15-9-17-7-6-14(15)19-13-5-3-4-12(8-13)10-21/h3-9,11,21H,10H2,1-2H3,(H,17,19)(H2,18,20,22)
Instrument: Exploris 240 Orbitrap Thermo Scientific
Instrument type: LC-ESI-QFT
Ms type: MS2
Ion mode: NEGATIVE
Ionization: ESI
Fragmentation mode: HCD
Collision energy: 150 % (nominal)
Resolution: 17500
Column name: XBridge C18 3.5um, 2.1x50mm, Waters
Retention time: 4.137 min
Base peak: 363.113
Precursor m/z: 363.1132
Precursor type: [M-H]-
m/z	relative intensity	assigned
50.0037	38	C3N-
57.9756	111	CNS-
61.9706	260	NOS-
63.9624	347	O2S-
65.0145	135	C3HN2-
77.9655	999	NO2S-
78.9737	106	HNO2S-
90.0349	66	C6H4N-
91.0303	268	C5H3N2-
93.0458	734	C5H5N2-
107.049	57	C5H5N3-
108.0331	49	C5H4N2O-
108.0566	95	C5H6N3-
167.0619	78	C11H7N2-
179.0621	48	C12H7N2-
192.0565	46	C12H6N3-
