Mass spectrum: Hydroxychloroquine; LC-ESI-QFT; MS2; CE: 75%; R=15000; [M+H]+
Name: Hydroxychloroquine
Name: 2-[4-[(7-chloroquinolin-4-yl)amino]pentyl-ethylamino]ethanol
Name: 2-[4-[(7-chloranylquinolin-4-yl)amino]pentyl-ethyl-amino]ethanol
Formula: C18H26ClN3O
Exact mass: 335.1764401
SMILES: CCN(CCCC(C)NC1=C2C=CC(=CC2=NC=C1)Cl)CCO
InChI: InChI=1S/C18H26ClN3O/c1-3-22(11-12-23)10-4-5-14(2)21-17-8-9-20-18-13-15(19)6-7-16(17)18/h6-9,13-14,23H,3-5,10-12H2,1-2H3,(H,20,21)
Instrument: Q Exactive
Instrument type: LC-ESI-QFT
Ms type: MS2
Ion mode: POSITIVE
Ionization: ESI
Fragmentation mode: HCD
Collision energy: 75 % (nominal)
Resolution: 15000
Column name: XBridge C18 3.5um, 2.1x50mm, Waters
Retention time: 2.686 min
Base peak: 168.5957
Precursor m/z: 336.1837
Precursor type: [M+H]+
Precursor intensity: 84149324.3
m/z	relative intensity	assigned
53.0021	23	C3HO+
58.0652	89	C3H8N+
69.0699	166	C5H9+
74.06	12	C3H8NO+
84.0806	16	C5H10N+
90.0915	34	C4H12NO+
98.0964	39	C6H12N+
102.0915	422	C5H12NO+
117.0572	14	C8H7N+
129.0575	12	C9H7N+
144.0683	102	C9H8N2+
155.0607	55	C10H7N2+
156.0682	164	C10H8N2+
158.1539	31	C9H20NO+
162.0106	19	C9H5ClN+
164.0262	60	C9H7ClN+
177.0341	23	C10H8ClN+
178.0287	56	C12H4NO+
179.0371	999	C9H8ClN2+
191.0371	496	C10H8ClN2+
203.0373	48	C11H8ClN2+
205.0528	206	C11H10ClN2+
247.0999	120	C14H16ClN2+
