Mass spectrum: Lufenuron; LC-ESI-QFT; MS2; CE: 180%; R=15000; [M+H]+
Name: Lufenuron
Name: N-[[2,5-dichloro-4-(1,1,2,3,3,3-hexafluoropropoxy)phenyl]carbamoyl]-2,6-difluorobenzamide
Formula: C17H8Cl2F8N2O3
Exact mass: 509.9784232
SMILES: FC(C(F)(F)F)C(F)(F)OC1=CC(Cl)=C(NC(=O)NC(=O)C2=C(F)C=CC=C2F)C=C1Cl
InChI: InChI=1S/C17H8Cl2F8N2O3/c18-6-5-11(32-17(26,27)14(22)16(23,24)25)7(19)4-10(6)28-15(31)29-13(30)12-8(20)2-1-3-9(12)21/h1-5,14H,(H2,28,29,30,31)
Instrument: Q Exactive Plus
Instrument type: LC-ESI-QFT
Ms type: MS2
Ion mode: POSITIVE
Ionization: ESI
Fragmentation mode: HCD
Collision energy: 180 % (nominal)
Resolution: 15000
Column name: XBridge C18 3.5um, 2.1x50mm, Waters
Retention time: 14.447 min
Base peak: 164.9846
Precursor m/z: 510.9857
Precursor type: [M+H]+
Precursor intensity: 22367248.74
m/z	relative intensity	assigned
57.0135	40	C3H2F+
61.0073	86	C5H+
62.0151	274	C5H2+
63.0229	999	C5H3+
68.9947	21	CF3+
74.0151	196	C6H2+
75.0229	18	C6H3+
92.0057	36	C6HF+
93.0135	104	C6H2F+
99.0104	81	C7HN+
100.0182	61	C7H2N+
113.0196	16	C6H3F2+
141.0257	20	C6H3F2N2+
