Mass spectrum: Fluazifop-butyl; LC-ESI-QFT; MS2; CE: 150%; R=15000; [M+H]+
Name: Fluazifop-butyl
Name: butyl 2-[4-[5-(trifluoromethyl)pyridin-2-yl]oxyphenoxy]propanoate
Formula: C19H20F3NO4
Exact mass: 383.1344428
SMILES: CCCCOC(=O)C(C)OC1=CC=C(OC2=CC=C(C=N2)C(F)(F)F)C=C1
InChI: InChI=1S/C19H20F3NO4/c1-3-4-11-25-18(24)13(2)26-15-6-8-16(9-7-15)27-17-10-5-14(12-23-17)19(20,21)22/h5-10,12-13H,3-4,11H2,1-2H3
Instrument: Q Exactive Plus
Instrument type: LC-ESI-QFT
Ms type: MS2
Ion mode: POSITIVE
Ionization: ESI
Fragmentation mode: HCD
Collision energy: 150 % (nominal)
Resolution: 15000
Column name: XBridge C18 3.5um, 2.1x50mm, Waters
Retention time: 13.597 min
Base peak: 384.142
Precursor m/z: 384.1417
Precursor type: [M+H]+
Precursor intensity: 286626437.05
m/z	relative intensity	assigned
50.0151	202	C4H2+
51.0041	55	CHF2+
51.023	289	C4H3+
53.0022	65	C3HO+
53.0386	105	C4H5+
57.0135	70	C3H2F+
61.0073	21	C5H+
62.0151	105	C5H2+
63.0229	487	C5H3+
65.0386	999	C5H5+
66.0465	46	C5H6+
68.9947	238	CF3+
70.0213	85	C4H3F+
74.0151	236	C6H2+
75.0041	892	C3HF2+
75.0229	276	C6H3+
76.0181	120	C5H2N+
77.0386	68	C6H5+
78.0338	178	C5H4N+
79.0543	12	C6H7+
81.0135	19	C5H2F+
81.0336	82	C5H5O+
83.0291	32	C5H4F+
87.023	63	C7H3+
88.0307	101	C7H4+
89.0387	89	C7H5+
90.0465	43	C7H6+
91.0417	40	C6H5N+
91.0543	173	C7H7+
95.0491	274	C6H7O+
96.0444	38	C5H6NO+
99.0041	239	C5HF2+
99.9994	38	C4F2N+
101.0198	36	C5H3F2+
102.0465	78	C8H6+
103.0542	130	C8H7+
104.0131	137	C6H2NO+
107.0292	56	C7H4F+
113.0386	288	C9H5+
114.0342	51	C8H4N+
114.0464	59	C9H6+
115.0416	34	C8H5N+
115.0543	39	C9H7+
119.0105	54	C5H2F3+
123.0227	64	C10H3+
126.015	135	C6H2F2N+
127.0229	56	C6H3F2N+
128.0494	70	C9H6N+
131.0292	50	C9H4F+
131.0493	96	C9H7O+
132.0571	47	C9H8O+
133.0445	86	C9H6F+
139.0542	31	C11H7+
140.0496	270	C10H6N+
141.0572	123	C10H7N+
146.0216	57	C6H3F3N+
151.0353	142	C9H5F2+
159.0482	29	C10H6FN+
164.0315	89	C6H5F3NO+
