Mass spectrum: Tepraloxydim; LC-ESI-QFT; MS2; CE: 60%; R=15000; [M+H]+
Name: Tepraloxydim
Name: 2-Cyclohexen-1-one, 2-(1-((((2E)-3-chloro-2-propenyl)oxy)imino)propyl)-3-hydroxy-5-(tetrahydro-2H-pyran-4-yl)-
Name: 2-[N-[(E)-3-chloroprop-2-enoxy]-C-ethylcarbonimidoyl]-3-hydroxy-5-(oxan-4-yl)cyclohex-2-en-1-one
Formula: C17H24ClNO4
Exact mass: 341.1393859
SMILES: CCC(=C1C(=O)CC(CC1=O)C2CCOCC2)NOCC=CCl
InChI: InChI=1S/C17H24ClNO4/c1-2-14(19-23-7-3-6-18)17-15(20)10-13(11-16(17)21)12-4-8-22-9-5-12/h3,6,12-13,19H,2,4-5,7-11H2,1H3
Instrument: Q Exactive Plus
Instrument type: LC-ESI-QFT
Ms type: MS2
Ion mode: POSITIVE
Ionization: ESI
Fragmentation mode: HCD
Collision energy: 60 % (nominal)
Resolution: 15000
Column name: XBridge C18 3.5um, 2.1x50mm, Waters
Retention time: 9.984 min
Base peak: 342.147
Precursor m/z: 342.1467
Precursor type: [M+H]+
Precursor intensity: 337553619.09
m/z	relative intensity	assigned
53.0386	60	C4H5+
55.0179	60	C3H3O+
55.0542	156	C4H7+
56.0495	97	C3H6N+
57.0334	22	C3H5O+
65.0385	39	C5H5+
67.0543	265	C5H7+
68.0495	83	C4H6N+
69.0699	45	C5H9+
70.0652	62	C4H8N+
71.073	24	C4H9N+
72.0442	39	C3H6NO+
72.0806	15	C4H10N+
74.9996	283	C3H4Cl+
77.0387	25	C6H5+
79.0542	279	C6H7+
81.0334	40	C5H5O+
81.0699	170	C6H9+
82.0652	114	C5H8N+
83.0492	336	C5H7O+
84.0444	27	C4H6NO+
84.0806	25	C5H10N+
91.0543	501	C7H7+
93.0572	38	C6H7N+
93.0699	388	C7H9+
94.0651	184	C6H8N+
95.0492	276	C6H7O+
95.0855	67	C7H11+
96.0444	575	C5H6NO+
96.0809	41	C6H10N+
97.0522	35	C5H7NO+
97.0647	37	C6H9O+
98.0601	999	C5H8NO+
103.0543	115	C8H7+
105.07	270	C8H9+
106.0651	20	C7H8N+
107.0492	74	C7H7O+
107.0856	80	C8H11+
108.0445	35	C6H6NO+
108.0808	309	C7H10N+
109.0649	105	C7H9O+
110.0601	399	C6H8NO+
110.0965	49	C7H12N+
111.0441	111	C6H7O2+
111.0679	78	C6H9NO+
113.0837	21	C6H11NO+
114.0913	44	C6H12NO+
115.0543	48	C9H7+
117.0698	126	C9H9+
118.065	30	C8H8N+
119.0492	41	C8H7O+
119.0856	115	C9H11+
120.0808	79	C8H10N+
121.0649	443	C8H9O+
122.0601	145	C7H8NO+
122.0967	14	C8H12N+
123.0439	26	C7H7O2+
123.0804	32	C8H11O+
124.0393	45	C6H6NO2+
124.0759	65	C7H10NO+
126.055	92	C6H8NO2+
129.0699	70	C10H9+
130.0653	16	C9H8N+
131.0855	104	C10H11+
132.0807	44	C9H10N+
133.0647	52	C9H9O+
133.1016	44	C10H13+
134.0599	30	C8H8NO+
134.0963	37	C9H12N+
135.0805	35	C9H11O+
136.0758	369	C8H10NO+
137.0599	64	C8H9O2+
137.0834	37	C8H11NO+
138.0551	37	C7H8NO2+
138.0914	321	C8H12NO+
140.0705	28	C7H10NO2+
142.0499	111	C6H8NO3+
143.0856	27	C11H11+
144.0809	23	C10H10N+
145.0651	27	C10H9O+
146.0599	29	C9H8NO+
147.0437	51	C9H7O2+
147.0802	37	C10H11O+
148.0756	106	C9H10NO+
149.0598	368	C9H9O2+
152.0708	29	C8H10NO2+
154.0777	14	C12H10+
158.097	17	C11H12N+
159.0807	22	C11H11O+
160.0754	38	C10H10NO+
160.1117	26	C11H14N+
161.0596	27	C10H9O2+
161.0839	13	C10H11NO+
161.0963	20	C11H13O+
162.0913	38	C10H12NO+
164.0705	193	C9H10NO2+
166.0862	782	C9H12NO2+
176.107	26	C11H14NO+
234.149	62	C14H20NO2+
