Mass spectrum: Amlodipine metabolite M9; LC-ESI-QFT; MS2; CE: 90%; R=17500; [M+H]+
Name: Amlodipine metabolite M9
Name: 3-Ethyl 5-methyl 2-((2-aminoethoxy)methyl)-4-(2-chlorophenyl)-6-methylpyridine-3,5-dicarboxylate
Name: 3-O-ethyl 5-O-methyl 2-(2-aminoethoxymethyl)-4-(2-chlorophenyl)-6-methylpyridine-3,5-dicarboxylate
Name: Dehydroamlodipine
Formula: C20H23ClN2O5
Exact mass: 406.1295495
SMILES: CCOC(=O)C1=C(C(=C(N=C1COCCN)C)C(=O)OC)C2=CC=CC=C2Cl
InChI: InChI=1S/C20H23ClN2O5/c1-4-28-20(25)18-15(11-27-10-9-22)23-12(2)16(19(24)26-3)17(18)13-7-5-6-8-14(13)21/h5-8H,4,9-11,22H2,1-3H3
Instrument: Exploris 240 Orbitrap Thermo Scientific
Instrument type: LC-ESI-QFT
Ms type: MS2
Ion mode: POSITIVE
Ionization: ESI
Fragmentation mode: HCD
Collision energy: 90 % (nominal)
Resolution: 17500
Column name: XBridge C18 3.5um, 2.1x50mm, Waters
Retention time: 6.888 min
Base peak: 407.1365
Precursor m/z: 407.1368
Precursor type: [M+H]+
m/z	relative intensity	assigned
126.0461	64	C10H6+
139.0542	119	C11H7+
140.0493	28	C10H6N+
140.062	44	C11H8+
149.0154	39	C9H6Cl+
151.0549	26	C12H7+
152.0622	112	C12H8+
161.0157	85	C10H6Cl+
166.0649	140	C12H8N+
167.0728	372	C12H9N+
168.0571	66	C9H11ClN+
173.0157	78	C11H6Cl+
175.0306	134	C11H8Cl+
177.0574	39	C13H7N+
189.0221	48	C10H6ClN2+
193.0517	12	C13H7NO+
194.0594	65	C13H8NO+
200.0262	104	C12H7ClN+
201.0106	74	C12H6ClO+
201.0349	34	C12H8ClN+
203.0258	33	C12H8ClO+
214.0052	58	C15H2O2+
223.0389	21	C14H7O3+
223.0635	19	C11H12ClN2O+
229.0035	21	C14HN2O2+
229.029	155	C13H8ClNO+
230.0368	999	C13H9ClNO+
232.0166	30	C12H7ClNO2+
258.0318	510	C14H9ClNO2+
