Mass spectrum: Myclobutanil; LC-ESI-QFT; MS2; CE: 120%; R=15000; [M+H]+
Name: Myclobutanil
Name: 2-(4-chlorophenyl)-2-(1,2,4-triazol-1-ylmethyl)hexanenitrile
Formula: C15H17ClN4
Exact mass: 288.1141742
SMILES: CCCCC(CN1C=NC=N1)(C#N)C1=CC=C(Cl)C=C1
InChI: InChI=1S/C15H17ClN4/c1-2-3-8-15(9-17,10-20-12-18-11-19-20)13-4-6-14(16)7-5-13/h4-7,11-12H,2-3,8,10H2,1H3
Instrument: Q Exactive Plus
Instrument type: LC-ESI-QFT
Ms type: MS2
Ion mode: POSITIVE
Ionization: ESI
Fragmentation mode: HCD
Collision energy: 120 % (nominal)
Resolution: 15000
Column name: XBridge C18 3.5um, 2.1x50mm, Waters
Retention time: 9.938 min
Base peak: 289.1216
Precursor m/z: 289.1215
Precursor type: [M+H]+
Precursor intensity: 913467055.69
m/z	relative intensity	assigned
63.0229	77	C5H3+
65.0386	23	C5H5+
70.04	999	C2H4N3+
72.984	35	C3H2Cl+
74.9996	15	C3H4Cl+
75.023	25	C6H3+
82.0401	28	C3H4N3+
89.0386	404	C7H5+
90.0465	130	C7H6+
95.0493	14	C3H10ClN+
98.9996	219	C5H4Cl+
102.0465	32	C8H6+
115.0543	107	C9H7+
116.0621	79	C9H8+
119.0493	12	C5H10ClN+
122.9996	21	C7H4Cl+
125.0153	416	C7H6Cl+
128.0622	14	C10H8+
129.0446	23	C8H5N2+
130.0652	13	C9H8N+
