Mass spectrum: Quinine; LC-ESI-QFT; MS2; CE: 45%; R=17500; [M+H]+
Name: Quinine
Name: Cinchonan-9-ol, 6`-methoxy-, (8alpha,9R)-
Name: (5-ethenyl-1-azabicyclo[2.2.2]octan-2-yl)-(6-methoxyquinolin-4-yl)methanol
Formula: C20H24N2O2
Exact mass: 324.183778
SMILES: COC1=CC2=C(C=CN=C2C=C1)C(C3CC4CCN3CC4C=C)O
InChI: InChI=1S/C20H24N2O2/c1-3-13-12-22-9-7-14(13)10-19(22)20(23)16-6-8-21-18-5-4-15(24-2)11-17(16)18/h3-6,8,11,13-14,19-20,23H,1,7,9-10,12H2,2H3
Instrument: Exploris 240 Orbitrap Thermo Scientific
Instrument type: LC-ESI-QFT
Ms type: MS2
Ion mode: POSITIVE
Ionization: ESI
Fragmentation mode: HCD
Collision energy: 45 % (nominal)
Resolution: 17500
Column name: XBridge C18 3.5um, 2.1x50mm, Waters
Retention time: 4.008 min
Base peak: 325.1906
Precursor m/z: 325.1911
Precursor type: [M+H]+
m/z	relative intensity	assigned
55.0541	9	C4H7+
67.0541	24	C5H7+
70.0651	5	C4H8N+
79.0542	43	C6H7+
80.0494	12	C5H6N+
81.0698	138	C6H9+
82.0652	20	C5H8N+
91.0542	6	C7H7+
93.07	4	C7H9+
94.065	6	C6H8N+
96.0807	12	C6H10N+
105.0698	7	C8H9+
107.0853	5	C8H11+
108.0806	17	C7H10N+
110.0962	48	C7H12N+
122.0965	13	C8H12N+
124.1119	17	C8H14N+
134.0961	24	C9H12N+
136.1117	14	C9H14N+
160.0757	115	C10H10NO+
162.0912	11	C10H12NO+
166.1226	35	C10H16NO+
172.0756	58	C11H10NO+
173.0831	23	C11H11NO+
174.0911	21	C11H12NO+
184.0757	142	C12H10NO+
185.0836	8	C12H11NO+
186.0911	61	C12H12NO+
196.0753	9	C13H10NO+
198.0914	68	C13H12NO+
199.0858	10	C12H11N2O+
200.1073	9	C13H14NO+
202.0867	14	C12H12NO2+
210.0917	18	C14H12NO+
212.1073	9	C14H14NO+
213.103	11	C13H13N2O+
224.1064	10	C15H14NO+
238.1232	7	C16H16NO+
251.1185	25	C16H15N2O+
253.1335	118	C16H17N2O+
264.1388	47	C18H18NO+
265.1328	20	C17H17N2O+
279.1487	58	C18H19N2O+
307.1803	351	C20H23N2O+
325.191	999	C20H25N2O2+
