Mass spectrum: Hesperitin; LC-ESI-QFT; MS2; CE: 90%; R=17500; [M+H]+
Name: Hesperitin
Name: 5,7-dihydroxy-2-(3-hydroxy-4-methoxyphenyl)-3,4-dihydro-2H-1-benzopyran-4-one
Name: 5,7-dihydroxy-2-(3-hydroxy-4-methoxyphenyl)-2,3-dihydrochromen-4-one
Formula: C16H14O6
Exact mass: 302.0790382
SMILES: COC1=C(C=C(C=C1)C2CC(=O)C3=C(C=C(C=C3O2)O)O)O
InChI: InChI=1S/C16H14O6/c1-21-13-3-2-8(4-10(13)18)14-7-12(20)16-11(19)5-9(17)6-15(16)22-14/h2-6,14,17-19H,7H2,1H3
Instrument: Exploris 240 Orbitrap Thermo Scientific
Instrument type: LC-ESI-QFT
Ms type: MS2
Ion mode: POSITIVE
Ionization: ESI
Fragmentation mode: HCD
Collision energy: 90 % (nominal)
Resolution: 17500
Column name: XBridge C18 3.5um, 2.1x50mm, Waters
Retention time: 6.321 min
Base peak: 303.086
Precursor m/z: 303.0863
Precursor type: [M+H]+
m/z	relative intensity	assigned
53.0387	11	C4H5+
55.0178	51	C3H3O+
63.023	14	C5H3+
65.0385	67	C5H5+
67.0178	176	C4H3O+
68.9971	235	C3HO2+
69.0334	215	C4H5O+
77.0387	19	C6H5+
78.0462	40	C6H6+
79.0178	27	C5H3O+
81.0337	11	C5H5O+
83.0127	40	C4H3O2+
89.0385	724	C7H5+
91.0542	57	C7H7+
93.0335	50	C6H5O+
94.0412	23	C6H6O+
95.0491	16	C6H7O+
97.0284	92	C5H5O2+
103.0543	12	C8H7+
106.0415	56	C7H6O+
111.0075	28	C5H3O3+
111.0441	9	C6H7O2+
115.0544	8	C9H7+
117.0335	302	C8H5O+
121.0645	13	C8H9O+
122.0361	22	C7H6O2+
123.0441	42	C7H7O2+
125.0233	12	C6H5O3+
134.0361	165	C8H6O2+
135.0439	17	C8H7O2+
136.0521	20	C8H8O2+
137.023	15	C7H5O3+
137.0598	26	C8H9O2+
145.0283	28	C9H5O2+
149.0597	107	C9H9O2+
153.0182	999	C7H5O4+
162.0308	13	C9H6O3+
163.039	9	C9H7O3+
177.0546	16	C10H9O3+
179.0341	14	C9H7O4+
