Mass spectrum: Chloridazon; LC-ESI-QFT; MS2; CE: 75%; R=15000; [M+H]+
Name: Chloridazon
Name: 5-amino-4-chloro-2-phenylpyridazin-3-one
Formula: C10H8ClN3O
Exact mass: 221.0355896
SMILES: NC1=C(Cl)C(=O)N(N=C1)C1=CC=CC=C1
InChI: InChI=1S/C10H8ClN3O/c11-9-8(12)6-13-14(10(9)15)7-4-2-1-3-5-7/h1-6H,12H2
Instrument: Q Exactive Plus
Instrument type: LC-ESI-QFT
Ms type: MS2
Ion mode: POSITIVE
Ionization: ESI
Fragmentation mode: HCD
Collision energy: 75 % (nominal)
Resolution: 15000
Column name: XBridge C18 3.5um, 2.1x50mm, Waters
Retention time: 4.559 min
Base peak: 222.043
Precursor m/z: 222.0429
Precursor type: [M+H]+
Precursor intensity: 516363769.41
m/z	relative intensity	assigned
50.0152	17	C4H2+
51.023	52	C4H3+
53.0386	164	C4H5+
55.0291	100	C2H3N2+
63.9948	49	CH3ClN+
65.0386	707	C5H5+
66.0213	29	C3H2N2+
67.0291	18	C3H3N2+
73.9792	19	C2HClN+
75.9948	40	C2H3ClN+
77.0385	135	C6H5+
81.0336	12	C5H5O+
83.024	29	C3H3N2O+
87.9949	109	C3H3ClN+
92.0495	999	C6H6N+
93.0573	105	C6H7N+
94.0651	206	C6H8N+
95.0492	554	C6H7O+
100.9901	160	C3H2ClN2+
101.974	27	C3HClNO+
103.0541	14	C8H7+
104.0495	705	C7H6N+
105.0448	157	C6H5N2+
116.9977	18	C4H4ClNO+
119.0606	24	C7H7N2+
128.985	209	C4H2ClN2O+
130.0652	62	C9H8N+
131.0604	24	C8H7N2+
132.0444	33	C8H6NO+
142.0526	13	C9H6N2+
146.0117	224	C4H5ClN3O+
149.0153	23	C9H6Cl+
150.0108	44	C8H5ClN+
158.0597	15	C10H8NO+
159.0553	15	C9H7N2O+
186.0659	14	C10H8N3O+
193.029	61	C10H8ClNO+
222.0428	164	C10H9ClN3O+
