Mass spectrum: 4-Hydroxypropanolol-sulfate; LC-ESI-QFT; MS2; CE: 75%; R=17500; [M-H]-
Name: 4-Hydroxypropanolol-sulfate
Name: 4-[2-Hydroxy-3-(propan-2-ylamino)propoxy]naphthalen-1-yl hydrogen sulfate
Name: [4-[2-hydroxy-3-(propan-2-ylamino)propoxy]naphthalen-1-yl] hydrogen sulfate
Name: HOPS
Formula: C16H21NO6S
Exact mass: 355.1089584
SMILES: CC(C)NCC(COC1=CC=C(C2=CC=CC=C21)OS(=O)(=O)O)O
InChI: InChI=1S/C16H21NO6S/c1-11(2)17-9-12(18)10-22-15-7-8-16(23-24(19,20)21)14-6-4-3-5-13(14)15/h3-8,11-12,17-18H,9-10H2,1-2H3,(H,19,20,21)
Instrument: Exploris 240 Orbitrap Thermo Scientific
Instrument type: LC-ESI-QFT
Ms type: MS2
Ion mode: NEGATIVE
Ionization: ESI
Fragmentation mode: HCD
Collision energy: 75 % (nominal)
Resolution: 17500
Column name: XBridge C18 3.5um, 2.1x50mm, Waters
Retention time: 3.192 min
Base peak: 354.1014
Precursor m/z: 354.1017
Precursor type: [M-H]-
m/z	relative intensity	assigned
79.9574	999	O3S-
158.0373	553	C10H6O2-
