Mass spectrum: Apremilast; LC-ESI-QFT; MS2; CE: 60%; R=15000; [M-H]-
Name: Apremilast
Name: Apremilast, (+/-)-
Name: N-[2-[(1S)-1-(3-ethoxy-4-methoxy-phenyl)-2-methylsulfonyl-ethyl]-1,3-bis(oxidanylidene)isoindol-4-yl]ethanamide
Formula: C22H24N2O7S
Exact mass: 460.1304221
SMILES: CCOC1=C(C=CC(=C1)C(CS(=O)(=O)C)N2C(=O)C3=C(C2=O)C(=CC=C3)NC(=O)C)OC
InChI: InChI=1S/C22H24N2O7S/c1-5-31-19-11-14(9-10-18(19)30-3)17(12-32(4,28)29)24-21(26)15-7-6-8-16(23-13(2)25)20(15)22(24)27/h6-11,17H,5,12H2,1-4H3,(H,23,25)
Instrument: Q Exactive
Instrument type: LC-ESI-QFT
Ms type: MS2
Ion mode: NEGATIVE
Ionization: ESI
Fragmentation mode: HCD
Collision energy: 60 % (nominal)
Resolution: 15000
Column name: XBridge C18 3.5um, 2.1x50mm, Waters
Retention time: 6.801 min
Base peak: 459.1239
Precursor m/z: 459.1231
Precursor type: [M-H]-
Precursor intensity: 240633702.71
m/z	relative intensity	assigned
63.9624	969	O2S-
77.9782	17	CH2O2S-
78.986	734	CH3O2S-
79.9575	29	O3S-
93.0016	154	C2H5O2S-
132.0456	28	C8H6NO-
160.0278	39	C8H4N2O2-
160.0407	146	C9H6NO2-
161.0357	999	C8H5N2O2-
183.0566	33	C11H7N2O-
185.0359	18	C4H11NO5S-
187.0151	349	C9H3N2O3-
201.0305	19	C10H5N2O3-
203.0464	158	C10H7N2O3-
291.0771	36	C17H11N2O3-
