Mass spectrum: Abacavir 5`-carboxylate; LC-ESI-QFT; MS2; CE: 60%; R=17500; [M+H]+
Name: Abacavir 5`-carboxylate
Name: 4-[2-amino-6-(cyclopropylamino)purin-9-yl]cyclopent-2-ene-1-carboxylic acid
Formula: C14H16N6O2
Exact mass: 300.1334738
SMILES: C1CC1NC2=C3C(=NC(=N2)N)N(C=N3)C4CC(C=C4)C(=O)O
InChI: InChI=1S/C14H16N6O2/c15-14-18-11(17-8-2-3-8)10-12(19-14)20(6-16-10)9-4-1-7(5-9)13(21)22/h1,4,6-9H,2-3,5H2,(H,21,22)(H3,15,17,18,19)
Instrument: Exploris 240 Orbitrap Thermo Scientific
Instrument type: LC-ESI-QFT
Ms type: MS2
Ion mode: POSITIVE
Ionization: ESI
Fragmentation mode: HCD
Collision energy: 60 % (nominal)
Resolution: 17500
Column name: XBridge C18 3.5um, 2.1x50mm, Waters
Retention time: 3.369 min
Base peak: 301.1404
Precursor m/z: 301.1408
Precursor type: [M+H]+
m/z	relative intensity	assigned
55.0543	5	C4H7+
58.0651	66	C3H8N+
65.0384	26	C5H5+
67.0542	163	C5H7+
83.0491	51	C5H7O+
83.0601	5	C4H7N2+
93.0335	27	C6H5O+
109.0508	55	C4H5N4+
111.044	43	C6H7O2+
122.0713	8	C6H8N3+
134.0461	65	C5H4N5+
136.0616	11	C5H6N5+
147.0661	9	C7H7N4+
149.0823	48	C7H9N4+
150.0647	292	C5H6N6+
151.0728	5	C5H7N6+
163.0723	24	C6H7N6+
164.093	49	C7H10N5+
174.0774	203	C8H8N5+
175.0732	3	C7H7N6+
191.1039	999	C8H11N6+
