Mass spectrum: Torasemidecarboxylic acid; LC-ESI-QFT; MS2; CE: 45%; R=17500; [M+H]+
Name: Torasemidecarboxylic acid
Name: Torsemide Carboxylic Acid
Name: 3-[[3-(propan-2-ylcarbamoylsulfamoyl)pyridin-4-yl]amino]benzoic acid
Formula: C16H18N4O5S
Exact mass: 378.0997907
SMILES: CC(C)NC(=O)NS(=O)(=O)C1=C(C=CN=C1)NC2=CC=CC(=C2)C(=O)O
InChI: InChI=1S/C16H18N4O5S/c1-10(2)18-16(23)20-26(24,25)14-9-17-7-6-13(14)19-12-5-3-4-11(8-12)15(21)22/h3-10H,1-2H3,(H,17,19)(H,21,22)(H2,18,20,23)
Instrument: Exploris 240 Orbitrap Thermo Scientific
Instrument type: LC-ESI-QFT
Ms type: MS2
Ion mode: POSITIVE
Ionization: ESI
Fragmentation mode: HCD
Collision energy: 45 % (nominal)
Resolution: 17500
Column name: XBridge C18 3.5um, 2.1x50mm, Waters
Retention time: 4.459 min
Base peak: 379.1067
Precursor m/z: 379.1071
Precursor type: [M+H]+
m/z	relative intensity	assigned
125.0169	17	C5H5N2S+
126.0007	5	C5H4NOS+
152.0342	8	C7H6NO3+
167.0603	5	C11H7N2+
169.076	134	C11H9N2+
187.0323	7	C10H7N2S+
195.0549	18	C4H11N4O3S+
203.028	4	C10H7N2OS+
205.0426	7	C10H9N2OS+
211.0502	51	C12H7N2O2+
212.057	4	C12H8N2O2+
213.0659	69	C12H9N2O2+
216.0352	4	C11H8N2OS+
228.0531	22	C12H8N2O3+
229.061	28	C12H9N2O3+
231.0222	17	C11H7N2O2S+
249.0323	3	C11H9N2O3S+
259.0171	129	C12H7N2O3S+
277.0275	40	C12H9N2O4S+
294.0543	999	C12H12N3O4S+
295.0584	11	C15H9N3O4+
320.0337	96	C13H10N3O5S+
