Mass spectrum: Phenyl glucuronide; LC-ESI-QFT; MS2; CE: 45%; R=17500; [M-H]-
Name: Phenyl glucuronide
Name: 3,4,5-trihydroxy-6-phenoxyoxane-2-carboxylic acid
Name: Phenolic glucuronide
Formula: C12H14O7
Exact mass: 270.0739528
SMILES: C1=CC=C(C=C1)OC2C(C(C(C(O2)C(=O)O)O)O)O
InChI: InChI=1S/C12H14O7/c13-7-8(14)10(11(16)17)19-12(9(7)15)18-6-4-2-1-3-5-6/h1-5,7-10,12-15H,(H,16,17)
Instrument: Exploris 240 Orbitrap Thermo Scientific
Instrument type: LC-ESI-QFT
Ms type: MS2
Ion mode: NEGATIVE
Ionization: ESI
Fragmentation mode: HCD
Collision energy: 45 % (nominal)
Resolution: 17500
Column name: XBridge C18 3.5um, 2.1x50mm, Waters
Retention time: 2.934 min
Base peak: 269.0667
Precursor m/z: 269.0667
Precursor type: [M-H]-
m/z	relative intensity	assigned
55.0189	14	C3H3O-
57.0346	78	C3H5O-
59.0138	557	C2H3O2-
67.0189	19	C4H3O-
68.9983	11	C3HO2-
71.0139	238	C3H3O2-
72.9931	43	C2HO3-
73.0295	30	C3H5O2-
75.0087	199	C2H3O3-
83.0139	18	C4H3O2-
85.0295	441	C4H5O2-
87.0087	145	C3H3O3-
89.0244	152	C3H5O3-
93.0346	999	C6H5O-
95.0138	112	C5H3O2-
99.0087	216	C4H3O3-
101.0245	9	C4H5O3-
103.0037	27	C3H3O4-
111.009	16	C5H3O3-
113.0244	237	C5H5O3-
115.004	53	C4H3O4-
117.0193	115	C4H5O4-
129.0197	46	C5H5O4-
157.0148	11	C6H5O5-
