Mass spectrum: Apalutamide; LC-ESI-QFT; MS2; CE: 75%; R=15000; [M+H]+
Name: Apalutamide
Name: 4-[7-[6-cyano-5-(trifluoromethyl)pyridin-3-yl]-8-oxo-6-sulfanylidene-5,7-diazaspiro[3.4]octan-5-yl]-2-fluoro-N-methylbenzamide
Name: 4-[7-[6-cyano-5-(trifluoromethyl)pyridin-3-yl]-8-oxidanylidene-6-sulfanylidene-5,7-diazaspiro[3.4]octan-5-yl]-2-fluoranyl-N-methyl-benzamide
Formula: C21H15F4N5O2S
Exact mass: 477.0882586
SMILES: CNC(=O)C1=C(C=C(C=C1)N2C(=S)N(C(=O)C23CCC3)C4=CC(=C(N=C4)C#N)C(F)(F)F)F
InChI: InChI=1S/C21H15F4N5O2S/c1-27-17(31)13-4-3-11(8-15(13)22)30-19(33)29(18(32)20(30)5-2-6-20)12-7-14(21(23,24)25)16(9-26)28-10-12/h3-4,7-8,10H,2,5-6H2,1H3,(H,27,31)
Instrument: Q Exactive
Instrument type: LC-ESI-QFT
Ms type: MS2
Ion mode: POSITIVE
Ionization: ESI
Fragmentation mode: HCD
Collision energy: 75 % (nominal)
Resolution: 15000
Column name: XBridge C18 3.5um, 2.1x50mm, Waters
Retention time: 8.898 min
Base peak: 478.0959
Precursor m/z: 478.0955
Precursor type: [M+H]+
Precursor intensity: 434274631.69
m/z	relative intensity	assigned
58.0288	217	C2H4NO+
109.045	158	C7H6F+
121.0085	80	C7H2FO+
122.0163	221	C7H3FO+
134.0402	136	C8H5FN+
138.0715	128	C8H9FN+
156.0279	275	C7H7FNS+
162.0351	999	C9H5FNO+
193.0775	102	C10H10FN2O+
212.0435	39	C14H6F2+
228.0039	26	C13H5FOS+
