Mass spectrum: Montelukast; LC-ESI-QFT; MS2; CE: 50%; R=15000; [M+H]+
Name: Montelukast
Name: 2-[1-[[1-[3-[2-(7-chloroquinolin-2-yl)ethenyl]phenyl]-3-[2-(2-hydroxypropan-2-yl)phenyl]propyl]sulfanylmethyl]cyclopropyl]acetic acid
Formula: C35H36ClNO3S
Exact mass: 585.2104427
SMILES: CC(C)(C1=CC=CC=C1CCC(C2=CC=CC(=C2)C=CC3=NC4=C(C=CC(=C4)Cl)C=C3)SCC5(CC5)CC(=O)O)O
InChI: InChI=1S/C35H36ClNO3S/c1-34(2,40)30-9-4-3-7-25(30)13-17-32(41-23-35(18-19-35)22-33(38)39)27-8-5-6-24(20-27)10-15-29-16-12-26-11-14-28(36)21-31(26)37-29/h3-12,14-16,20-21,32,40H,13,17-19,22-23H2,1-2H3,(H,38,39)
Instrument: Exploris 240 Thermo Scientific
Instrument type: LC-ESI-QFT
Ms type: MS2
Ion mode: POSITIVE
Ionization: ESI
Fragmentation mode: HCD
Collision energy: 50 % (nominal)
Resolution: 15000
Column name: XBridge C18 3.5um, 2.1x50mm, Waters
Retention time: 15.027 min
Base peak: 586.2179
Precursor m/z: 586.2177
Precursor type: [M+H]+
m/z	relative intensity	assigned
79.0542	21	C6H7+
91.0542	999	C7H7+
103.0541	38	C8H7+
105.0699	137	C8H9+
115.0541	195	C9H7+
116.0621	133	C9H8+
117.0699	62	C9H9+
128.05	15	C3H12O3S+
128.0619	211	C10H8+
129.0697	191	C10H9+
131.0855	147	C10H11+
140.0494	18	C10H6N+
141.0696	80	C11H9+
142.0773	107	C11H10+
155.0607	22	C4H13NO3S+
162.0106	144	C9H5ClN+
177.034	98	C10H8ClN+
180.0216	54	C9H7ClNO+
202.0778	231	C16H10+
203.0834	59	C10H16ClO2+
215.0864	50	C17H11+
241.0884	299	C18H11N+
242.0963	377	C12H18O3S+
243.1038	129	C18H13N+
251.0495	113	C16H10ClN+
262.042	98	C17H9ClN+
264.0571	130	C20H8O+
275.0496	243	C18H10ClN+
276.0575	416	C18H11ClN+
277.0653	500	C18H12ClN+
288.0571	66	C22H8O+
290.0728	62	C22H10O+
292.0888	76	C19H15ClN+
304.0889	75	C20H15ClN+
