Mass spectrum: Theophylline; LC-ESI-QFT; MS2; CE: 120%; R=17500; [M-H]-
Name: Theophylline
Name: 1,3-dimethyl-7H-purine-2,6-dione
Formula: C7H8N4O2
Exact mass: 180.0647255
SMILES: CN1C2=C(C(=O)N(C1=O)C)NC=N2
InChI: InChI=1S/C7H8N4O2/c1-10-5-4(8-3-9-5)6(12)11(2)7(10)13/h3H,1-2H3,(H,8,9)
Instrument: Exploris 240 Orbitrap Thermo Scientific
Instrument type: LC-ESI-QFT
Ms type: MS2
Ion mode: NEGATIVE
Ionization: ESI
Fragmentation mode: HCD
Collision energy: 120 % (nominal)
Resolution: 17500
Column name: XBridge C18 3.5um, 2.1x50mm, Waters
Retention time: 2.608 min
Base peak: 179.0574
Precursor m/z: 179.0574
Precursor type: [M-H]-
m/z	relative intensity	assigned
41.9985	87	CNO-
55.03	69	C2H3N2-
65.0145	23	C3HN2-
65.9985	999	C3NO-
67.0302	121	C3H3N2-
69.0095	45	C2HN2O-
79.0176	723	C3HN3-
92.0255	101	C4H2N3-
94.041	334	C4H4N3-
107.0125	279	C4HN3O-
109.0282	14	C4H3N3O-
120.0204	21	C5H2N3O-
122.0359	237	C5H4N3O-
135.0075	180	C5HN3O2-
135.0312	238	C5H3N4O-
164.0335	78	C6H4N4O2-
