Mass spectrum: Sulfentrazone; LC-ESI-QFT; MS2; CE: 45%; R=15000; [M-H]-
Name: Sulfentrazone
Name: N-[2,4-dichloro-5-[4-(difluoromethyl)-3-methyl-5-oxo-1,2,4-triazol-1-yl]phenyl]methanesulfonamide
Formula: C11H10Cl2F2N4O3S
Exact mass: 385.981873
SMILES: CC1=NN(C(=O)N1C(F)F)C1=CC(NS(C)(=O)=O)=C(Cl)C=C1Cl
InChI: InChI=1S/C11H10Cl2F2N4O3S/c1-5-16-19(11(20)18(5)10(14)15)9-4-8(17-23(2,21)22)6(12)3-7(9)13/h3-4,10,17H,1-2H3
Instrument: Q Exactive Plus
Instrument type: LC-ESI-QFT
Ms type: MS2
Ion mode: NEGATIVE
Ionization: ESI
Fragmentation mode: HCD
Collision energy: 45 % (nominal)
Resolution: 15000
Column name: XBridge C18 3.5um, 2.1x50mm, Waters
Retention time: 6.498 min
Base peak: 384.9746
Precursor m/z: 384.9746
Precursor type: [M-H]-
Precursor intensity: 116507073.09
m/z	relative intensity	assigned
63.9624	35	O2S-
76.9703	68	CHO2S-
148.0328	24	C4H4F2N3O-
166.9818	20	C7HClFN2-
171.96	52	C6H2Cl2N2-
189.9811	23	C8HClN3O-
198.9471	304	C7HCl2N2O-
199.955	104	C7H2Cl2N2O-
212.9627	10	C8H3Cl2N2O-
213.994	20	C11H3ClN2O-
221.0237	25	C9H6ClN4O-
225.958	136	C8H2Cl2N3O-
230.9999	31	C8H8ClN2O2S-
239.9737	208	C9H4Cl2N3O-
257.0005	12	C9H7Cl2N4O-
299.0012	71	C10H8ClN4O3S-
305.9893	257	C10H6Cl2F2N4O-
306.9972	999	C10H7Cl2F2N4O-
334.9774	62	C10H9Cl2N4O3S-
384.9747	95	C11H9Cl2F2N4O3S-
