Mass spectrum: Maleic hydrazide; LC-ESI-QFT; MS2; CE: 180%; R=15000; [M-H]-
Name: Maleic hydrazide
Name: 1,2-dihydropyridazine-3,6-dione
Formula: C4H4N2O2
Exact mass: 112.0272774
SMILES: C1=CC(=O)NNC1=O
InChI: InChI=1S/C4H4N2O2/c7-3-1-2-4(8)6-5-3/h1-2H,(H,5,7)(H,6,8)
Instrument: Exploris 240 Thermo Scientific
Instrument type: LC-ESI-QFT
Ms type: MS2
Ion mode: NEGATIVE
Ionization: ESI
Fragmentation mode: HCD
Collision energy: 180 % (nominal)
Resolution: 15000
Column name: XBridge C18 3.5um, 2.1x50mm, Waters
Retention time: 1.147 min
Base peak: 111.02
Precursor m/z: 111.02
Precursor type: [M-H]-
m/z	relative intensity	assigned
41.0033	184	C2HO-
41.9985	999	CNO-
53.0033	408	C3HO-
55.0189	40	C3H3O-
65.9985	48	C3NO-
82.0061	155	C4H2O2-
