Mass spectrum: 12-Hydroxynevirapine; LC-ESI-QFT; MS2; CE: 45%; R=17500; [M+H]+
Name: 12-Hydroxynevirapine
Name: 2-cyclopropyl-7-(hydroxymethyl)-2,4,9,15-tetrazatricyclo[9.4.0.03,8]pentadeca-1(11),3,5,7,12,14-hexaen-10-one
Formula: C15H14N4O2
Exact mass: 282.1116757
SMILES: C1CC1N2C3=C(C=CC=N3)C(=O)NC4=C(C=CN=C42)CO
InChI: InChI=1S/C15H14N4O2/c20-8-9-5-7-17-14-12(9)18-15(21)11-2-1-6-16-13(11)19(14)10-3-4-10/h1-2,5-7,10,20H,3-4,8H2,(H,18,21)
Instrument: Exploris 240 Orbitrap Thermo Scientific
Instrument type: LC-ESI-QFT
Ms type: MS2
Ion mode: POSITIVE
Ionization: ESI
Fragmentation mode: HCD
Collision energy: 45 % (nominal)
Resolution: 17500
Column name: XBridge C18 3.5um, 2.1x50mm, Waters
Retention time: 4.006 min
Base peak: 283.1185
Precursor m/z: 283.119
Precursor type: [M+H]+
m/z	relative intensity	assigned
196.0745	9	C11H8N4+
223.0628	19	C14H9NO2+
223.1102	47	C14H13N3+
224.0697	11	C12H8N4O+
237.1134	42	C14H13N4+
242.08	7	C12H10N4O2+
250.0852	37	C14H10N4O+
265.1083	999	C15H13N4O+
283.1188	133	C15H15N4O2+
