Mass spectrum: Acyclovir; LC-ESI-QFT; MS2; CE: 15%; R=17500; [M+H]+
Name: Acyclovir
Name: 2-amino-9-(2-hydroxyethoxymethyl)-3H-purin-6-one
Formula: C8H11N5O3
Exact mass: 225.0861892
SMILES: C1=NC2=C(N1COCCO)N=C(NC2=O)N
InChI: InChI=1S/C8H11N5O3/c9-8-11-6-5(7(15)12-8)10-3-13(6)4-16-2-1-14/h3,14H,1-2,4H2,(H3,9,11,12,15)
Instrument: Exploris 240 Orbitrap Thermo Scientific
Instrument type: LC-ESI-QFT
Ms type: MS2
Ion mode: POSITIVE
Ionization: ESI
Fragmentation mode: HCD
Collision energy: 15 % (nominal)
Resolution: 17500
Column name: XBridge C18 3.5um, 2.1x50mm, Waters
Retention time: 1.177 min
Base peak: 144.9877
Precursor m/z: 226.0935
Precursor type: [M+H]+
m/z	relative intensity	assigned
152.0566	999	C5H6N5O+
164.0572	9	C6H6N5O+
226.0935	540	C8H12N5O3+
