Mass spectrum: Suberoylanilide hydroxamic acid; LC-ESI-QFT; MS2; CE: 15%; R=15000; [M+H]+
Name: Suberoylanilide hydroxamic acid
Name: Vorinostat
Name: N`-hydroxy-N-phenyloctanediamide
Formula: C14H20N2O3
Exact mass: 264.1473925
SMILES: C1=CC=C(C=C1)NC(=O)CCCCCCC(=O)NO
InChI: InChI=1S/C14H20N2O3/c17-13(15-12-8-4-3-5-9-12)10-6-1-2-7-11-14(18)16-19/h3-5,8-9,19H,1-2,6-7,10-11H2,(H,15,17)(H,16,18)
Instrument: Exploris 240 Thermo Scientific
Instrument type: LC-ESI-QFT
Ms type: MS2
Ion mode: POSITIVE
Ionization: ESI
Fragmentation mode: HCD
Collision energy: 15 % (nominal)
Resolution: 15000
Column name: XBridge C18 3.5um, 2.1x50mm, Waters
Retention time: 4.916 min
Base peak: 265.1544
Precursor m/z: 265.1547
Precursor type: [M+H]+
m/z	relative intensity	assigned
94.0651	57	C6H8N+
172.0966	349	C8H14NO3+
232.133	586	C14H18NO2+
265.1546	999	C14H21N2O3+
