Mass spectrum: Tetramethrin; LC-ESI-QFT; MS2; CE: 75%; R=15000; [M+H]+
Name: Tetramethrin
Name: (1,3-dioxo-4,5,6,7-tetrahydroisoindol-2-yl)methyl 2,2-dimethyl-3-(2-methylprop-1-enyl)cyclopropane-1-carboxylate
Formula: C19H25NO4
Exact mass: 331.1783583
SMILES: CC(=CC1C(C1(C)C)C(=O)OCN2C(=O)C3=C(C2=O)CCCC3)C
InChI: InChI=1S/C19H25NO4/c1-11(2)9-14-15(19(14,3)4)18(23)24-10-20-16(21)12-7-5-6-8-13(12)17(20)22/h9,14-15H,5-8,10H2,1-4H3
Instrument: Exploris 240 Thermo Scientific
Instrument type: LC-ESI-QFT
Ms type: MS2
Ion mode: POSITIVE
Ionization: ESI
Fragmentation mode: HCD
Collision energy: 75 % (nominal)
Resolution: 15000
Column name: XBridge C18 3.5um, 2.1x50mm, Waters
Retention time: 13.389 min
Base peak: 332.1851
Precursor m/z: 332.1856
Precursor type: [M+H]+
m/z	relative intensity	assigned
55.0542	33	C4H7+
67.0543	27	C5H7+
69.0699	16	C5H9+
77.0384	65	C6H5+
79.0541	189	C6H7+
80.0495	17	C5H6N+
81.0698	130	C6H9+
91.054	119	C7H7+
93.0697	247	C7H9+
95.0854	22	C7H11+
105.0697	62	C8H9+
107.049	515	C7H7O+
107.0854	187	C8H11+
108.0804	50	C7H10N+
119.085	67	C9H11+
120.0807	31	C8H10N+
120.0928	18	C9H12+
121.101	91	C9H13+
135.0439	258	C8H7O2+
135.1165	149	C10H15+
136.0394	31	C7H6NO2+
136.0757	25	C8H10NO+
163.111	17	C11H15O+
164.0703	999	C9H10NO2+
