Mass spectrum: Fenoxaprop-P-ethyl; LC-ESI-QFT; MS2; CE: 45%; R=15000; [M+H]+
Name: Fenoxaprop-P-ethyl
Name: Fenoxaprop-ethyl
Name: ethyl 2-[4-[(6-chloro-1,3-benzoxazol-2-yl)oxy]phenoxy]propanoate
Formula: C18H16ClNO5
Exact mass: 361.0717003
SMILES: CCOC(=O)C(C)OC1=CC=C(C=C1)OC2=NC3=C(O2)C=C(C=C3)Cl
InChI: InChI=1S/C18H16ClNO5/c1-3-22-17(21)11(2)23-13-5-7-14(8-6-13)24-18-20-15-9-4-12(19)10-16(15)25-18/h4-11H,3H2,1-2H3
Instrument: Exploris 240 Thermo Scientific
Instrument type: LC-ESI-QFT
Ms type: MS2
Ion mode: POSITIVE
Ionization: ESI
Fragmentation mode: HCD
Collision energy: 45 % (nominal)
Resolution: 15000
Column name: XBridge C18 3.5um, 2.1x50mm, Waters
Retention time: 13.081 min
Base peak: 362.079
Precursor m/z: 362.079
Precursor type: [M+H]+
m/z	relative intensity	assigned
55.0179	21	C3H3O+
65.0386	23	C5H5+
73.0283	23	C3H5O2+
91.0542	247	C7H7+
93.0697	46	C7H9+
94.0413	22	C6H6O+
95.0491	33	C6H7O+
103.0542	155	C8H7+
107.049	16	C7H7O+
119.0492	516	C8H7O+
120.0568	114	C8H8O+
121.0648	562	C8H9O+
139.9898	24	C6H3ClNO+
167.9845	118	C7H3ClNO2+
181.089	18	C13H11N+
209.047	34	C13H7NO2+
209.0832	72	C14H11NO+
229.0285	23	C13H8ClNO+
238.0499	159	C14H8NO3+
244.0162	104	C13H7ClNO2+
244.0523	276	C14H11ClNO+
260.0472	303	C14H11ClNO2+
261.0186	97	C13H8ClNO3+
262.0269	78	C13H9ClNO3+
288.0422	999	C15H11ClNO3+
334.0487	29	C16H13ClNO5+
