Mass spectrum: Hydroxytorasemide; LC-ESI-QFT; MS2; CE: 45%; R=17500; [M+H]+
Name: Hydroxytorasemide
Name: Torasemide metabolite M1
Name: 1-[4-[3-(hydroxymethyl)anilino]pyridin-3-yl]sulfonyl-3-propan-2-ylurea
Formula: C16H20N4O4S
Exact mass: 364.1205261
SMILES: CC(C)NC(=O)NS(=O)(=O)C1=C(C=CN=C1)NC2=CC=CC(=C2)CO
InChI: InChI=1S/C16H20N4O4S/c1-11(2)18-16(22)20-25(23,24)15-9-17-7-6-14(15)19-13-5-3-4-12(8-13)10-21/h3-9,11,21H,10H2,1-2H3,(H,17,19)(H2,18,20,22)
Instrument: Exploris 240 Orbitrap Thermo Scientific
Instrument type: LC-ESI-QFT
Ms type: MS2
Ion mode: POSITIVE
Ionization: ESI
Fragmentation mode: HCD
Collision energy: 45 % (nominal)
Resolution: 17500
Column name: XBridge C18 3.5um, 2.1x50mm, Waters
Retention time: 4.126 min
Base peak: 365.1276
Precursor m/z: 365.1278
Precursor type: [M+H]+
m/z	relative intensity	assigned
125.0167	21	C5H5N2S+
138.0549	5	C7H8NO2+
152.0037	12	C6H4N2OS+
153.0116	5	C6H5N2OS+
169.0761	76	C11H9N2+
181.0759	33	C12H9N2+
182.084	10	C12H10N2+
189.0479	8	C10H9N2S+
197.0712	16	C12H9N2O+
214.0738	12	C12H10N2O2+
215.0817	9	C12H11N2O2+
216.0355	7	C11H8N2OS+
217.0431	32	C11H9N2OS+
228.0346	3	C12H8N2OS+
233.0381	49	C11H9N2O2S+
245.0382	89	C12H9N2O2S+
263.0485	17	C12H11N2O3S+
280.0751	999	C12H14N3O3S+
306.0546	125	C13H12N3O4S+
