Mass spectrum: Losartan; LC-ESI-QFT; MS2; CE: 15%; R=15000; [M+H]+
Name: Losartan
Name: [2-butyl-5-chloro-3-[[4-[2-(2H-tetrazol-5-yl)phenyl]phenyl]methyl]imidazol-4-yl]methanol
Name: [2-butyl-5-chloranyl-3-[[4-[2-(2H-1,2,3,4-tetrazol-5-yl)phenyl]phenyl]methyl]imidazol-4-yl]methanol
Formula: C22H23ClN6O
Exact mass: 422.162187
SMILES: CCCCC1=NC(=C(N1CC2=CC=C(C=C2)C3=CC=CC=C3C4=NNN=N4)CO)Cl
InChI: InChI=1S/C22H23ClN6O/c1-2-3-8-20-24-21(23)19(14-30)29(20)13-15-9-11-16(12-10-15)17-6-4-5-7-18(17)22-25-27-28-26-22/h4-7,9-12,30H,2-3,8,13-14H2,1H3,(H,25,26,27,28)
Instrument: Q Exactive
Instrument type: LC-ESI-QFT
Ms type: MS2
Ion mode: POSITIVE
Ionization: ESI
Fragmentation mode: HCD
Collision energy: 15 % (nominal)
Resolution: 15000
Column name: XBridge C18 3.5um, 2.1x50mm, Waters
Retention time: 7.649 min
Base peak: 423.1702
Precursor m/z: 423.1695
Precursor type: [M+H]+
Precursor intensity: 1952951099.16
m/z	relative intensity	assigned
171.0683	71	C8H12ClN2+
192.0809	63	C14H10N+
207.0917	899	C14H11N2+
235.0978	159	C14H11N4+
341.1761	112	C22H21N4+
362.1422	71	C22H21ClN3+
377.1528	999	C22H22ClN4+
