Mass spectrum: Tolclofos-methyl; LC-ESI-QFT; MS2; CE: 60%; R=15000; [M+H]+
Name: Tolclofos-methyl
Name: (2,6-dichloro-4-methylphenoxy)-dimethoxy-sulfanylidene-lambda5-phosphane
Formula: C9H11Cl2O3PS
Exact mass: 299.9543572
SMILES: COP(=S)(OC)OC1=C(Cl)C=C(C)C=C1Cl
InChI: InChI=1S/C9H11Cl2O3PS/c1-6-4-7(10)9(8(11)5-6)14-15(16,12-2)13-3/h4-5H,1-3H3
Instrument: Q Exactive Plus
Instrument type: LC-ESI-QFT
Ms type: MS2
Ion mode: POSITIVE
Ionization: ESI
Fragmentation mode: HCD
Collision energy: 60 % (nominal)
Resolution: 15000
Column name: XBridge C18 3.5um, 2.1x50mm, Waters
Retention time: 12.151 min
Base peak: 300.9617
Precursor m/z: 300.9616
Precursor type: [M+H]+
Precursor intensity: 57974677.45
m/z	relative intensity	assigned
51.023	13	C4H3+
62.0185	57	C2H6S+
62.9453	15	PS+
78.9943	427	CH4O2P+
86.9996	23	C4H4Cl+
112.0074	50	C6H5Cl+
127.0155	95	C3H8ClO3+
129.0102	102	C6H6ClO+
141.0099	24	C6H6O2P+
142.9927	647	C2H8O3PS+
143.9797	41	C6H5ClS+
146.9763	299	C6H5Cl2+
174.9712	999	C7H5Cl2O+
186.998	15	C8H8ClOS+
190.9488	18	C7H5Cl2S+
218.9432	57	C8H5Cl2OS+
253.9119	107	C7H5Cl2O2PS+
