Mass spectrum: Fenoxaprop-P-ethyl; LC-ESI-QFT; MS2; CE: 60%; R=15000; [M+H]+
Name: Fenoxaprop-P-ethyl
Name: Fenoxaprop-ethyl
Name: ethyl 2-[4-[(6-chloro-1,3-benzoxazol-2-yl)oxy]phenoxy]propanoate
Formula: C18H16ClNO5
Exact mass: 361.0717003
SMILES: CCOC(=O)C(C)OC1=CC=C(C=C1)OC2=NC3=C(O2)C=C(C=C3)Cl
InChI: InChI=1S/C18H16ClNO5/c1-3-22-17(21)11(2)23-13-5-7-14(8-6-13)24-18-20-15-9-4-12(19)10-16(15)25-18/h4-11H,3H2,1-2H3
Instrument: Exploris 240 Thermo Scientific
Instrument type: LC-ESI-QFT
Ms type: MS2
Ion mode: POSITIVE
Ionization: ESI
Fragmentation mode: HCD
Collision energy: 60 % (nominal)
Resolution: 15000
Column name: XBridge C18 3.5um, 2.1x50mm, Waters
Retention time: 13.081 min
Base peak: 362.079
Precursor m/z: 362.079
Precursor type: [M+H]+
m/z	relative intensity	assigned
55.0179	49	C3H3O+
65.0386	197	C5H5+
73.0286	45	C3H5O2+
75.0231	16	C6H3+
77.0386	83	C6H5+
79.0541	69	C6H7+
81.0336	28	C5H5O+
91.0542	999	C7H7+
92.0258	64	C6H4O+
93.0699	236	C7H9+
94.0413	48	C6H6O+
95.0491	115	C6H7O+
103.0542	536	C8H7+
109.0285	41	C6H5O2+
119.0492	589	C8H7O+
120.0569	209	C8H8O+
121.0648	952	C8H9O+
139.9897	138	C6H3ClNO+
154.0057	24	C10H2O2+
164.05	40	C12H6N+
165.0576	147	C12H7N+
166.0057	36	C8H5ClNO+
167.9847	157	C7H3ClNO2+
180.0808	37	C13H10N+
181.0891	49	C13H11N+
183.068	53	C12H9NO+
200.026	70	C12H7ClN+
217.0287	82	C12H8ClNO+
229.0291	35	C13H8ClNO+
232.0519	89	C16H8O2+
238.0498	115	C14H8NO3+
242.0366	184	C14H9ClNO+
244.0165	233	C13H7ClNO2+
244.0526	135	C14H11ClNO+
245.0241	39	C13H8ClNO2+
260.0476	187	C14H11ClNO2+
261.0188	64	C13H8ClNO3+
