Mass spectrum: Lumefantrine; LC-ESI-QFT; MS2; CE: 90%; R=15000; [M+H]+
Name: Lumefantrine
Name: Benflumetol
Name: 2-(dibutylamino)-1-[2,7-dichloro-9-[(4-chlorophenyl)methylidene]fluoren-4-yl]ethanol
Formula: C30H32Cl3NO
Exact mass: 527.1549477
SMILES: CCCCN(CCCC)CC(C1=C2C3=C(C=C(C=C3)Cl)C(=CC4=CC=C(C=C4)Cl)C2=CC(=C1)Cl)O
InChI: InChI=1S/C30H32Cl3NO/c1-3-5-13-34(14-6-4-2)19-29(35)28-18-23(33)17-27-25(15-20-7-9-21(31)10-8-20)26-16-22(32)11-12-24(26)30(27)28/h7-12,15-18,29,35H,3-6,13-14,19H2,1-2H3
Instrument: Exploris 240 Thermo Scientific
Instrument type: LC-ESI-QFT
Ms type: MS2
Ion mode: POSITIVE
Ionization: ESI
Fragmentation mode: HCD
Collision energy: 90 % (nominal)
Resolution: 15000
Column name: XBridge C18 3.5um, 2.1x50mm, Waters
Retention time: 13.745 min
Base peak: 528.1627
Precursor m/z: 528.1622
Precursor type: [M+H]+
m/z	relative intensity	assigned
57.07	53	C4H9+
58.0652	24	C3H8N+
202.0778	28	C16H10+
263.0856	36	C21H11+
264.0931	15	C21H12+
265.1014	70	C21H13+
276.0936	999	C22H12+
277.1014	201	C22H13+
278.1097	177	C22H14+
291.1045	316	C12H26Cl3O+
299.0627	65	C21H12Cl+
310.0547	333	C22H11Cl+
311.0627	58	C22H12Cl+
312.0698	124	C22H13Cl+
325.0662	30	C22H12ClN+
327.0813	60	C22H14ClN+
340.0896	78	C23H15ClN+
346.0316	59	C22H12Cl2+
