Mass spectrum: Diosmin; LC-ESI-QFT; MS2; CE: 120%; R=15000; [M-H]-
Name: Diosmin
Name: Diosmetin-7-O-rutinoside
Name: 2-(4-methoxy-3-oxidanyl-phenyl)-7-[(2S,3R,4S,5S,6R)-6-[[(2R,3R,4R,5R,6S)-6-methyl-3,4,5-tris(oxidanyl)oxan-2-yl]oxymethyl]-3,4,5-tris(oxidanyl)oxan-2-yl]oxy-5-oxidanyl-chromen-4-one
Formula: C28H32O15
Exact mass: 608.1741203
SMILES: CC1C(C(C(C(O1)OCC2C(C(C(C(O2)OC3=CC(=C4C(=C3)OC(=CC4=O)C5=CC(=C(C=C5)OC)O)O)O)O)O)O)O)O
InChI: InChI=1S/C28H32O15/c1-10-21(32)23(34)25(36)27(40-10)39-9-19-22(33)24(35)26(37)28(43-19)41-12-6-14(30)20-15(31)8-17(42-18(20)7-12)11-3-4-16(38-2)13(29)5-11/h3-8,10,19,21-30,32-37H,9H2,1-2H3
Instrument: Q Exactive
Instrument type: LC-ESI-QFT
Ms type: MS2
Ion mode: NEGATIVE
Ionization: ESI
Fragmentation mode: HCD
Collision energy: 120 % (nominal)
Resolution: 15000
Column name: XBridge C18 3.5um, 2.1x50mm, Waters
Retention time: 5.105 min
Base peak: 607.167
Precursor m/z: 607.1668
Precursor type: [M-H]-
Precursor intensity: 119824329.38
m/z	relative intensity	assigned
63.024	988	C5H3-
65.0032	999	C4HO-
83.0139	269	C4H3O2-
107.0139	123	C6H3O2-
132.0216	133	C8H4O2-
133.0295	337	C8H5O2-
155.0503	52	C11H7O-
157.0298	37	C10H5O2-
171.0453	76	C11H7O2-
182.0378	50	C12H6O2-
183.0451	103	C12H7O2-
187.0402	27	C11H7O3-
199.0399	48	C12H7O3-
211.0397	54	C13H7O3-
227.0346	71	C13H7O4-
