Mass spectrum: Hexythiazox; LC-ESI-QFT; MS2; CE: 120%; R=15000; [M+H]+
Name: Hexythiazox
Name: 5-(4-chlorophenyl)-N-cyclohexyl-4-methyl-2-oxo-1,3-thiazolidine-3-carboxamide
Formula: C17H21ClN2O2S
Exact mass: 352.1012266
SMILES: CC1C(SC(=O)N1C(=O)NC2CCCCC2)C3=CC=C(C=C3)Cl
InChI: InChI=1S/C17H21ClN2O2S/c1-11-15(12-7-9-13(18)10-8-12)23-17(22)20(11)16(21)19-14-5-3-2-4-6-14/h7-11,14-15H,2-6H2,1H3,(H,19,21)
Instrument: Exploris 240 Thermo Scientific
Instrument type: LC-ESI-QFT
Ms type: MS2
Ion mode: POSITIVE
Ionization: ESI
Fragmentation mode: HCD
Collision energy: 120 % (nominal)
Resolution: 15000
Column name: XBridge C18 3.5um, 2.1x50mm, Waters
Retention time: 14.150 min
Base peak: 353.1083
Precursor m/z: 353.1085
Precursor type: [M+H]+
m/z	relative intensity	assigned
55.0542	76	C4H7+
56.0495	55	C3H6N+
65.0385	18	C5H5+
89.0385	68	C7H5+
91.0541	83	C7H7+
115.0541	999	C9H7+
116.0619	745	C9H8+
117.0573	88	C8H7N+
118.065	80	C8H8N+
125.0152	85	C7H6Cl+
130.065	30	C9H8N+
132.0806	105	C9H10N+
138.0101	36	C10H2O+
140.0497	40	C10H6N+
141.0573	28	C10H7N+
149.0151	35	C9H6Cl+
153.0337	47	C11H5O+
