Mass spectrum: N-Methylpregabalin; LC-ESI-QFT; MS2; CE: 120%; R=17500; [M+H]+
Name: N-Methylpregabalin
Name: 5-methyl-3-[(methylazaniumyl)methyl]hexanoate
Formula: C9H19NO2
Exact mass: 173.1415788
SMILES: CC(C)CC(CC(=O)O)CNC
InChI: InChI=1S/C9H19NO2/c1-7(2)4-8(6-10-3)5-9(11)12/h7-8,10H,4-6H2,1-3H3,(H,11,12)
Instrument: Exploris 240 Orbitrap Thermo Scientific
Instrument type: LC-ESI-QFT
Ms type: MS2
Ion mode: POSITIVE
Ionization: ESI
Fragmentation mode: HCD
Collision energy: 120 % (nominal)
Resolution: 17500
Column name: XBridge C18 3.5um, 2.1x50mm, Waters
Retention time: 3.329 min
Base peak: 174.1486
Precursor m/z: 174.1489
Precursor type: [M+H]+
m/z	relative intensity	assigned
41.0385	83	C3H5+
43.0178	37	C2H3O+
43.0542	41	C3H7+
44.0494	48	C2H6N+
45.0335	30	C2H5O+
53.0386	24	C4H5+
55.0178	223	C3H3O+
55.0542	999	C4H7+
57.0698	47	C4H9+
58.0288	42	C2H4NO+
59.0491	72	C3H7O+
69.0334	14	C4H5O+
69.07	42	C5H9+
70.0651	93	C4H8N+
79.0544	27	C6H7+
82.0652	48	C5H8N+
83.0493	11	C5H7O+
83.0856	47	C6H11+
91.0543	25	C7H7+
94.065	14	C6H8N+
