Mass spectrum: 4-(Diethylamino)benzaldehyde; LC-ESI-QFT; MS2; CE: 15%; R=15000; [M+H]+
Name: 4-(Diethylamino)benzaldehyde
Formula: C11H15NO
Exact mass: 177.1153641
SMILES: CCN(CC)C1=CC=C(C=C1)C=O
InChI: InChI=1S/C11H15NO/c1-3-12(4-2)11-7-5-10(9-13)6-8-11/h5-9H,3-4H2,1-2H3
Instrument: Exploris 240 Thermo Scientific
Instrument type: LC-ESI-QFT
Ms type: MS2
Ion mode: POSITIVE
Ionization: ESI
Fragmentation mode: HCD
Collision energy: 15 % (nominal)
Resolution: 15000
Column name: XBridge C18 3.5um, 2.1x50mm, Waters
Retention time: 7.291 min
Base peak: 178.1225
Precursor m/z: 178.1226
Precursor type: [M+H]+
m/z	relative intensity	assigned
178.1226	999	C11H16NO+
