Mass spectrum: Tepraloxydim; LC-ESI-QFT; MS2; CE: 120%; R=15000; [M+H]+
Name: Tepraloxydim
Name: 2-Cyclohexen-1-one, 2-(1-((((2E)-3-chloro-2-propenyl)oxy)imino)propyl)-3-hydroxy-5-(tetrahydro-2H-pyran-4-yl)-
Name: 2-[N-[(E)-3-chloroprop-2-enoxy]-C-ethylcarbonimidoyl]-3-hydroxy-5-(oxan-4-yl)cyclohex-2-en-1-one
Formula: C17H24ClNO4
Exact mass: 341.1393859
SMILES: CCC(=C1C(=O)CC(CC1=O)C2CCOCC2)NOCC=CCl
InChI: InChI=1S/C17H24ClNO4/c1-2-14(19-23-7-3-6-18)17-15(20)10-13(11-16(17)21)12-4-8-22-9-5-12/h3,6,12-13,19H,2,4-5,7-11H2,1H3
Instrument: Q Exactive Plus
Instrument type: LC-ESI-QFT
Ms type: MS2
Ion mode: POSITIVE
Ionization: ESI
Fragmentation mode: HCD
Collision energy: 120 % (nominal)
Resolution: 15000
Column name: XBridge C18 3.5um, 2.1x50mm, Waters
Retention time: 9.984 min
Base peak: 342.147
Precursor m/z: 342.1467
Precursor type: [M+H]+
Precursor intensity: 337553619.09
m/z	relative intensity	assigned
50.0152	41	C4H2+
51.023	219	C4H3+
53.0022	44	C3HO+
53.0386	457	C4H5+
54.0339	114	C3H4N+
55.0179	108	C3H3O+
55.0543	250	C4H7+
56.0495	396	C3H6N+
65.0386	501	C5H5+
66.034	47	C4H4N+
66.0464	54	C5H6+
67.0179	18	C4H3O+
67.0417	181	C4H5N+
67.0543	286	C5H7+
68.0131	23	C3H2NO+
68.0495	365	C4H6N+
69.0335	70	C4H5O+
70.0288	27	C3H4NO+
74.9996	265	C3H4Cl+
77.0385	160	C6H5+
78.0464	59	C6H6+
79.0542	442	C6H7+
80.0495	179	C5H6N+
81.0336	90	C5H5O+
81.0573	99	C5H7N+
81.0699	83	C6H9+
82.0653	168	C5H8N+
83.0493	33	C5H7O+
91.0543	999	C7H7+
93.0574	200	C6H7N+
93.0699	139	C7H9+
94.0652	225	C6H8N+
95.0492	939	C6H7O+
96.0444	437	C5H6NO+
98.0601	561	C5H8NO+
103.0542	495	C8H7+
105.0698	90	C8H9+
106.0653	72	C7H8N+
107.0491	38	C7H7O+
108.0808	103	C7H10N+
115.0543	246	C9H7+
116.0621	19	C9H8+
117.0575	40	C8H7N+
117.0698	58	C9H9+
118.0653	51	C8H8N+
121.0648	99	C8H9O+
122.0603	23	C7H8NO+
128.0621	120	C10H8+
129.07	41	C10H9+
