Mass spectrum: Abacavir 5`-carboxylate; LC-ESI-QFT; MS2; CE: 90%; R=17500; [M+H]+
Name: Abacavir 5`-carboxylate
Name: 4-[2-amino-6-(cyclopropylamino)purin-9-yl]cyclopent-2-ene-1-carboxylic acid
Formula: C14H16N6O2
Exact mass: 300.1334738
SMILES: C1CC1NC2=C3C(=NC(=N2)N)N(C=N3)C4CC(C=C4)C(=O)O
InChI: InChI=1S/C14H16N6O2/c15-14-18-11(17-8-2-3-8)10-12(19-14)20(6-16-10)9-4-1-7(5-9)13(21)22/h1,4,6-9H,2-3,5H2,(H,21,22)(H3,15,17,18,19)
Instrument: Exploris 240 Orbitrap Thermo Scientific
Instrument type: LC-ESI-QFT
Ms type: MS2
Ion mode: POSITIVE
Ionization: ESI
Fragmentation mode: HCD
Collision energy: 90 % (nominal)
Resolution: 17500
Column name: XBridge C18 3.5um, 2.1x50mm, Waters
Retention time: 3.369 min
Base peak: 301.1404
Precursor m/z: 301.1408
Precursor type: [M+H]+
m/z	relative intensity	assigned
55.0291	20	C2H3N2+
55.0541	68	C4H7+
56.0497	14	C3H6N+
58.0651	316	C3H8N+
65.0385	297	C5H5+
67.0542	613	C5H7+
68.0496	17	C4H6N+
80.0245	34	C3H2N3+
82.0401	31	C3H4N3+
83.0492	141	C5H7O+
92.0244	25	C4H2N3+
93.0332	82	C6H5O+
94.0403	20	C4H4N3+
95.0606	36	C5H7N2+
105.0449	41	C6H5N2+
107.0353	174	C4H3N4+
108.0429	121	C4H4N4+
108.0558	32	C5H6N3+
109.0509	345	C4H5N4+
111.0444	18	C6H7O2+
119.0354	26	C5H3N4+
120.0559	42	C6H6N3+
121.0513	20	C5H5N4+
122.0713	73	C6H8N3+
132.0557	46	C7H6N3+
133.0385	26	C5H3N5+
133.0505	18	C6H5N4+
134.0461	999	C5H4N5+
136.0622	30	C5H6N5+
137.0455	49	C5H5N4O+
147.0662	79	C7H7N4+
149.0693	20	C6H7N5+
149.0825	103	C7H9N4+
150.0648	704	C5H6N6+
151.0731	25	C5H7N6+
163.0729	61	C6H7N6+
164.0933	37	C7H10N5+
174.0776	369	C8H8N5+
175.0727	66	C7H7N6+
191.1041	113	C8H11N6+
