Mass spectrum: Iprovalicarb; LC-ESI-QFT; MS2; CE: 120%; R=15000; [M+H]+
Name: Iprovalicarb
Name: Isopropyl (3-methyl-1-{[1-(4-methylphenyl)ethyl]amino}-1-oxobutan-2-yl)carbamate
Name: propan-2-yl N-[3-methyl-1-[1-(4-methylphenyl)ethylamino]-1-oxobutan-2-yl]carbamate
Formula: C18H28N2O3
Exact mass: 320.2099928
SMILES: CC1=CC=C(C=C1)C(C)NC(=O)C(C(C)C)NC(=O)OC(C)C
InChI: InChI=1S/C18H28N2O3/c1-11(2)16(20-18(22)23-12(3)4)17(21)19-14(6)15-9-7-13(5)8-10-15/h7-12,14,16H,1-6H3,(H,19,21)(H,20,22)
Instrument: Exploris 240 Thermo Scientific
Instrument type: LC-ESI-QFT
Ms type: MS2
Ion mode: POSITIVE
Ionization: ESI
Fragmentation mode: HCD
Collision energy: 120 % (nominal)
Resolution: 15000
Column name: XBridge C18 3.5um, 2.1x50mm, Waters
Retention time: 9.865 min
Base peak: 321.2171
Precursor m/z: 321.2173
Precursor type: [M+H]+
m/z	relative intensity	assigned
53.0386	31	C4H5+
55.0542	142	C4H7+
65.0386	207	C5H5+
72.0808	77	C4H10N+
77.0386	165	C6H5+
78.0463	72	C6H6+
79.0542	52	C6H7+
91.0542	999	C7H7+
93.0698	56	C7H9+
95.0491	122	C6H7O+
103.0542	219	C8H7+
104.062	207	C8H8+
105.0447	64	C6H5N2+
115.0543	131	C9H7+
117.0698	269	C9H9+
119.0854	168	C9H11+
