Mass spectrum: 5-Fluorocytosine; LC-ESI-QFT; MS2; CE: 150%; R=17500; [M+H]+
Name: 5-Fluorocytosine
Name: Flucytosine
Name: 6-amino-5-fluoro-1H-pyrimidin-2-one
Formula: C4H4FN3O
Exact mass: 129.03384
SMILES: C1=NC(=O)NC(=C1F)N
InChI: InChI=1S/C4H4FN3O/c5-2-1-7-4(9)8-3(2)6/h1H,(H3,6,7,8,9)
Instrument: Exploris 240 Orbitrap Thermo Scientific
Instrument type: LC-ESI-QFT
Ms type: MS2
Ion mode: POSITIVE
Ionization: ESI
Fragmentation mode: HCD
Collision energy: 150 % (nominal)
Resolution: 17500
Column name: XBridge C18 3.5um, 2.1x50mm, Waters
Retention time: 0.909 min
Base peak: 130.041
Precursor m/z: 130.0411
Precursor type: [M+H]+
m/z	relative intensity	assigned
40.0182	4	C2H2N+
43.029	9	CH3N2+
44.013	6	CH2NO+
46.0088	8	CHFN+
47.0166	7	CH2FN+
48.0244	13	CH3FN+
55.029	5	C2H3N2+
56.0131	27	C2H2NO+
58.0087	999	C2HFN+
60.0244	133	C2H3FN+
65.0133	18	C3HN2+
67.029	42	C3H3N2+
69.0082	12	C2HN2O+
70.0087	7	C3HFN+
85.0196	225	C3H2FN2+
87.0354	46	C3H4FN2+
113.0146	155	C4H2FN2O+
130.0415	8	C4H5FN3O+
