Mass spectrum: O-Desarylranolazine; LC-ESI-QFT; MS2; CE: 60%; R=17500; [M+H]+
Name: O-Desarylranolazine
Name: 2-[4-(2,3-dihydroxypropyl)piperazin-1-yl]-N-(2,6-dimethylphenyl)acetamide
Formula: C17H27N3O3
Exact mass: 321.2052417
SMILES: CC1=C(C(=CC=C1)C)NC(=O)CN2CCN(CC2)CC(CO)O
InChI: InChI=1S/C17H27N3O3/c1-13-4-3-5-14(2)17(13)18-16(23)11-20-8-6-19(7-9-20)10-15(22)12-21/h3-5,15,21-22H,6-12H2,1-2H3,(H,18,23)
Instrument: Exploris 240 Orbitrap Thermo Scientific
Instrument type: LC-ESI-QFT
Ms type: MS2
Ion mode: POSITIVE
Ionization: ESI
Fragmentation mode: HCD
Collision energy: 60 % (nominal)
Resolution: 17500
Column name: XBridge C18 3.5um, 2.1x50mm, Waters
Retention time: 3.177 min
Base peak: 322.212
Precursor m/z: 322.2125
Precursor type: [M+H]+
m/z	relative intensity	assigned
56.0494	30	C3H6N+
58.0651	51	C3H8N+
70.0651	417	C4H8N+
72.0443	8	C3H6NO+
81.0335	5	C5H5O+
82.0651	13	C5H8N+
84.0809	12	C5H10N+
86.06	19	C4H8NO+
97.0759	51	C5H9N2+
98.0838	628	C5H10N2+
100.0756	171	C5H10NO+
101.1074	22	C5H13N2+
111.0918	9	C6H11N2+
112.0998	9	C6H12N2+
113.1072	72	C6H13N2+
118.0859	28	C5H12NO2+
124.0994	5	C7H12N2+
128.0946	18	C6H12N2O+
130.0862	56	C6H12NO2+
134.0962	12	C9H12N+
141.1022	7	C7H13N2O+
143.1178	999	C7H15N2O+
155.118	8	C8H15N2O+
158.1046	36	C7H14N2O2+
173.1285	115	C8H17N2O2+
