Mass spectrum: 5-Hydroxysulfapyridine; LC-ESI-QFT; MS2; CE: 180%; R=17500; [M+H]+
Name: 5-Hydroxysulfapyridine
Name: Benzenesulfonamide, 4-amino-N-(5-hydroxy-2-pyridinyl)-
Name: 4-amino-N-(5-hydroxypyridin-2-yl)benzenesulfonamide
Formula: C11H11N3O3S
Exact mass: 265.0521122
SMILES: C1=CC(=CC=C1N)S(=O)(=O)NC2=NC=C(C=C2)O
InChI: InChI=1S/C11H11N3O3S/c12-8-1-4-10(5-2-8)18(16,17)14-11-6-3-9(15)7-13-11/h1-7,15H,12H2,(H,13,14)
Instrument: Exploris 240 Orbitrap Thermo Scientific
Instrument type: LC-ESI-QFT
Ms type: MS2
Ion mode: POSITIVE
Ionization: ESI
Fragmentation mode: HCD
Collision energy: 180 % (nominal)
Resolution: 17500
Column name: XBridge C18 3.5um, 2.1x50mm, Waters
Retention time: 2.562 min
Base peak: 266.0591
Precursor m/z: 266.0594
Precursor type: [M+H]+
m/z	relative intensity	assigned
51.023	70	C4H3+
52.0181	184	C3H2N+
53.0024	25	C3HO+
53.026	82	C3H3N+
53.0385	205	C4H5+
54.0338	878	C3H4N+
55.0179	55	C3H3O+
55.0417	132	C3H5N+
65.0385	999	C5H5+
66.034	53	C4H4N+
66.0465	102	C5H6+
76.0182	74	C5H2N+
80.0495	358	C5H6N+
81.0448	247	C4H5N2+
82.0527	139	C4H6N2+
83.0367	44	C4H5NO+
92.0492	43	C6H6N+
93.0574	48	C6H7N+
112.0395	35	C5H6NO2+
