Mass spectrum: Lamivudine; LC-ESI-QFT; MS2; CE: 60%; R=17500; [M-H]-
Name: Lamivudine
Name: 4-amino-1-(2-(hydroxymethyl)-1,3-oxathiolan-5-yl)pyrimidin-2(1H)-one
Name: 4-amino-1-[2-(hydroxymethyl)-1,3-oxathiolan-5-yl]pyrimidin-2-one
Formula: C8H11N3O3S
Exact mass: 229.0521122
SMILES: C1C(OC(S1)CO)N2C=CC(=NC2=O)N
InChI: InChI=1S/C8H11N3O3S/c9-5-1-2-11(8(13)10-5)6-4-15-7(3-12)14-6/h1-2,6-7,12H,3-4H2,(H2,9,10,13)
Instrument: Exploris 240 Orbitrap Thermo Scientific
Instrument type: LC-ESI-QFT
Ms type: MS2
Ion mode: NEGATIVE
Ionization: ESI
Fragmentation mode: HCD
Collision energy: 60 % (nominal)
Resolution: 17500
Column name: XBridge C18 3.5um, 2.1x50mm, Waters
Retention time: 1.438 min
Base peak: 146.9386
Precursor m/z: 228.0448
Precursor type: [M-H]-
m/z	relative intensity	assigned
67.0304	31	C3H3N2-
91.0302	120	C5H3N2-
92.0254	25	C4H2N3-
98.0071	7	C4H4NS-
106.041	108	C5H4N3-
107.0252	15	C5H3N2O-
110.0357	20	C4H4N3O-
125.018	61	C5H5N2S-
132.0206	9	C6H2N3O-
134.036	999	C6H4N3O-
