Mass spectrum: Hesperitin; LC-ESI-QFT; MS2; CE: 90%; R=17500; [M-H]-
Name: Hesperitin
Name: 5,7-dihydroxy-2-(3-hydroxy-4-methoxyphenyl)-3,4-dihydro-2H-1-benzopyran-4-one
Name: 5,7-dihydroxy-2-(3-hydroxy-4-methoxyphenyl)-2,3-dihydrochromen-4-one
Formula: C16H14O6
Exact mass: 302.0790382
SMILES: COC1=C(C=C(C=C1)C2CC(=O)C3=C(C=C(C=C3O2)O)O)O
InChI: InChI=1S/C16H14O6/c1-21-13-3-2-8(4-10(13)18)14-7-12(20)16-11(19)5-9(17)6-15(16)22-14/h2-6,14,17-19H,7H2,1H3
Instrument: Exploris 240 Orbitrap Thermo Scientific
Instrument type: LC-ESI-QFT
Ms type: MS2
Ion mode: NEGATIVE
Ionization: ESI
Fragmentation mode: HCD
Collision energy: 90 % (nominal)
Resolution: 17500
Column name: XBridge C18 3.5um, 2.1x50mm, Waters
Retention time: 6.311 min
Base peak: 301.0717
Precursor m/z: 301.0718
Precursor type: [M-H]-
m/z	relative intensity	assigned
57.0347	31	C3H5O-
63.024	239	C5H3-
65.0033	767	C4HO-
80.0268	421	C5H4O-
83.0139	294	C4H3O2-
96.0219	40	C5H4O2-
107.0138	265	C6H3O2-
108.0217	999	C6H4O2-
121.0296	30	C7H5O2-
124.0169	30	C6H4O3-
132.0218	31	C8H4O2-
133.0295	87	C8H5O2-
134.0374	275	C8H6O2-
135.0451	322	C8H7O2-
136.0165	257	C7H4O3-
143.0501	23	C10H7O-
151.0041	108	C7H3O4-
158.038	28	C10H6O2-
164.0116	46	C8H4O4-
165.019	16	C8H5O4-
171.0453	41	C11H7O2-
173.0246	27	C10H5O3-
174.0324	19	C10H6O3-
175.0406	43	C10H7O3-
185.0612	25	C12H9O2-
187.0401	24	C11H7O3-
198.0322	27	C12H6O3-
199.0403	51	C12H7O3-
201.0194	22	C11H5O4-
215.0352	15	C12H7O4-
