Mass spectrum: Profenofos; LC-ESI-QFT; MS2; CE: 150%; R=15000; [M+H]+
Name: Profenofos
Name: 4-bromo-2-chloro-1-[ethoxy(propylsulfanyl)phosphoryl]oxybenzene
Formula: C11H15BrClO3PS
Exact mass: 371.9351418
SMILES: CCCSP(=O)(OCC)OC1=C(C=C(C=C1)Br)Cl
InChI: InChI=1S/C11H15BrClO3PS/c1-3-7-18-17(14,15-4-2)16-11-6-5-9(12)8-10(11)13/h5-6,8H,3-4,7H2,1-2H3
Instrument: Exploris 240 Thermo Scientific
Instrument type: LC-ESI-QFT
Ms type: MS2
Ion mode: POSITIVE
Ionization: ESI
Fragmentation mode: HCD
Collision energy: 150 % (nominal)
Resolution: 15000
Column name: XBridge C18 3.5um, 2.1x50mm, Waters
Retention time: 13.098 min
Base peak: 374.9398
Precursor m/z: 372.9424
Precursor type: [M+H]+
m/z	relative intensity	assigned
50.0151	69	C4H2+
51.0228	188	C4H3+
52.0308	111	C4H4+
63.0229	999	C5H3+
64.0307	524	C5H4+
64.9786	821	H2O2P+
65.0385	525	C5H5+
68.9794	105	C3HS+
69.9873	40	C3H2S+
74.015	287	C6H2+
75.0229	385	C6H3+
78.9402	339	OPS+
92.0255	180	C6H4O+
96.0028	103	C5H4S+
96.9506	294	H2O2PS+
100.0074	278	C5H5Cl+
106.995	136	C6H3S+
108.003	82	C6H4S+
109.0106	194	C6H5S+
109.9919	86	C5H3OP+
116.9336	145	C3H2Br+
126.8948	102	CHBrCl+
130.9492	95	C4H4Br+
141.9638	113	C6H3ClS+
158.9438	158	C5H4BrO+
176.9096	191	C4H3BrOP+
