Mass spectrum: Tolterodine; LC-ESI-QFT; MS2; CE: 60%; R=15000; [M+H]+
Name: Tolterodine
Name: 2-[(1R)-3-[di(propan-2-yl)amino]-1-phenylpropyl]-4-methylphenol
Formula: C22H31NO
Exact mass: 325.2405646
SMILES: CC(C)N(CC[C@H](C1=CC=CC=C1)C1=C(O)C=CC(C)=C1)C(C)C
InChI: InChI=1S/C22H31NO/c1-16(2)23(17(3)4)14-13-20(19-9-7-6-8-10-19)21-15-18(5)11-12-22(21)24/h6-12,15-17,20,24H,13-14H2,1-5H3/t20-/m1/s1
Instrument: Exploris 240 Thermo Scientific
Instrument type: LC-ESI-QFT
Ms type: MS2
Ion mode: POSITIVE
Ionization: ESI
Fragmentation mode: HCD
Collision energy: 60 % (nominal)
Resolution: 15000
Column name: XBridge C18 3.5um, 2.1x50mm, Waters
Retention time: 6.330 min
Base peak: 326.2476
Precursor m/z: 326.2478
Precursor type: [M+H]+
m/z	relative intensity	assigned
55.0179	32	C3H3O+
60.0807	106	C3H10N+
72.0807	473	C4H10N+
86.0965	17	C5H12N+
91.0542	262	C7H7+
93.0698	56	C7H9+
102.1279	38	C6H16N+
115.0544	30	C9H7+
117.0698	304	C9H9+
119.0855	319	C9H11+
121.0648	999	C8H9O+
129.0702	31	C10H9+
147.0805	880	C10H11O+
169.1018	47	C13H13+
179.086	73	C14H11+
182.073	108	C13H10O+
197.0961	867	C14H13O+
202.0777	383	C16H10+
284.2017	133	C19H26NO+
326.2484	32	C22H32NO+
