Mass spectrum: Myclobutanil; LC-ESI-QFT; MS2; CE: 150%; R=15000; [M+H]+
Name: Myclobutanil
Name: 2-(4-chlorophenyl)-2-(1,2,4-triazol-1-ylmethyl)hexanenitrile
Formula: C15H17ClN4
Exact mass: 288.1141742
SMILES: CCCCC(CN1C=NC=N1)(C#N)C1=CC=C(Cl)C=C1
InChI: InChI=1S/C15H17ClN4/c1-2-3-8-15(9-17,10-20-12-18-11-19-20)13-4-6-14(16)7-5-13/h4-7,11-12H,2-3,8,10H2,1H3
Instrument: Q Exactive Plus
Instrument type: LC-ESI-QFT
Ms type: MS2
Ion mode: POSITIVE
Ionization: ESI
Fragmentation mode: HCD
Collision energy: 150 % (nominal)
Resolution: 15000
Column name: XBridge C18 3.5um, 2.1x50mm, Waters
Retention time: 9.938 min
Base peak: 289.1216
Precursor m/z: 289.1215
Precursor type: [M+H]+
Precursor intensity: 913467055.69
m/z	relative intensity	assigned
50.0152	13	C4H2+
51.0229	34	C4H3+
61.0073	12	C5H+
62.0152	40	C5H2+
63.0229	338	C5H3+
64.0308	16	C5H4+
65.0386	69	C5H5+
66.0464	22	C5H6+
70.04	999	C2H4N3+
72.9839	219	C3H2Cl+
74.0151	10	C6H2+
74.9997	39	C3H4Cl+
75.0229	124	C6H3+
76.0308	11	C6H4+
77.0387	13	C6H5+
82.0399	20	C3H4N3+
89.0386	813	C7H5+
90.0465	257	C7H6+
95.0492	34	C3H10ClN+
96.984	18	C5H2Cl+
98.9996	422	C5H4Cl+
102.0465	68	C8H6+
103.0543	15	C8H7+
115.0542	253	C9H7+
116.0621	60	C9H8+
119.0491	11	C5H10ClN+
122.9997	27	C7H4Cl+
125.0153	206	C7H6Cl+
128.0623	26	C10H8+
130.0652	17	C9H8N+
152.0618	11	C12H8+
