Mass spectrum: Losartan-carboxylic acid; LC-ESI-QFT; MS2; CE: 180%; R=17500; [M+H]+
Name: Losartan-carboxylic acid
Name: Losartan carboxylic acid
Name: 2-butyl-5-chloro-3-[[4-[2-(2H-tetrazol-5-yl)phenyl]phenyl]methyl]imidazole-4-carboxylic acid
Formula: C22H21ClN6O2
Exact mass: 436.1414516
SMILES: CCCCC1=NC(=C(N1CC2=CC=C(C=C2)C3=CC=CC=C3C4=NNN=N4)C(=O)O)Cl
InChI: InChI=1S/C22H21ClN6O2/c1-2-3-8-18-24-20(23)19(22(30)31)29(18)13-14-9-11-15(12-10-14)16-6-4-5-7-17(16)21-25-27-28-26-21/h4-7,9-12H,2-3,8,13H2,1H3,(H,30,31)(H,25,26,27,28)
Instrument: Exploris 240 Orbitrap Thermo Scientific
Instrument type: LC-ESI-QFT
Ms type: MS2
Ion mode: POSITIVE
Ionization: ESI
Fragmentation mode: HCD
Collision energy: 180 % (nominal)
Resolution: 17500
Column name: XBridge C18 3.5um, 2.1x50mm, Waters
Retention time: 8.222 min
Base peak: 437.1482
Precursor m/z: 437.1487
Precursor type: [M+H]+
m/z	relative intensity	assigned
50.015	173	C4H2+
51.0229	496	C4H3+
52.0181	33	C3H2N+
53.0386	46	C4H5+
62.0152	96	C5H2+
63.0228	499	C5H3+
65.0385	162	C5H5+
74.0149	180	C6H2+
75.0228	382	C6H3+
76.0182	38	C5H2N+
76.0307	123	C6H4+
77.0385	516	C6H5+
78.0466	84	C6H6+
87.0228	223	C7H3+
88.0306	102	C7H4+
89.0384	377	C7H5+
95.0489	169	C6H7O+
99.0229	118	C8H3+
101.0387	43	C8H5+
102.0462	209	C8H6+
105.0444	129	C6H5N2+
113.0384	362	C9H5+
114.0464	46	C9H6+
115.0541	237	C9H7+
125.0385	167	C10H5+
126.0463	456	C10H6+
127.0543	109	C10H7+
128.0621	83	C10H8+
129.0451	65	C8H5N2+
137.0385	202	C11H5+
138.0341	42	C10H4N+
138.0465	48	C11H6+
139.0541	215	C11H7+
140.0493	185	C10H6N+
149.0388	64	C12H5+
150.0463	999	C12H6+
151.0543	569	C12H7+
152.062	648	C12H8+
155.0604	82	C10H7N2+
161.0382	72	C13H5+
162.0463	150	C13H6+
163.0542	486	C13H7+
165.0705	63	C13H9+
169.0646	313	C12H9O+
176.0622	333	C14H8+
179.0607	245	C12H7N2+
188.0495	137	C14H6N+
190.0659	52	C14H8N+
