Mass spectrum: Ganciclovir; LC-ESI-QFT; MS2; CE: 60%; R=15000; [M-H]-
Name: Ganciclovir
Name: CID 3454
Name: 2-azanyl-9-[1,3-bis(oxidanyl)propan-2-yloxymethyl]-1H-purin-6-one
Formula: C9H13N5O4
Exact mass: 255.0967539
SMILES: C1=NC2=C(N1COC(CO)CO)N=C(NC2=O)N
InChI: InChI=1S/C9H13N5O4/c10-9-12-7-6(8(17)13-9)11-3-14(7)4-18-5(1-15)2-16/h3,5,15-16H,1-2,4H2,(H3,10,12,13,17)
Instrument: Q Exactive
Instrument type: LC-ESI-QFT
Ms type: MS2
Ion mode: NEGATIVE
Ionization: ESI
Fragmentation mode: HCD
Collision energy: 60 % (nominal)
Resolution: 15000
Column name: XBridge C18 3.5um, 2.1x50mm, Waters
Retention time: 0.849 min
Base peak: 254.0896
Precursor m/z: 254.0895
Precursor type: [M-H]-
Precursor intensity: 119879646.76
m/z	relative intensity	assigned
59.0138	17	C2H3O2-
65.0144	128	C3HN2-
66.0097	179	C2N3-
67.0301	43	C3H3N2-
82.0411	32	C3H4N3-
90.0098	17	C4N3-
92.0255	500	C4H2N3-
94.0411	14	C4H4N3-
107.0364	129	C4H3N4-
108.0204	267	C4H2N3O-
119.0363	618	C5H3N4-
120.0204	114	C5H2N3O-
126.0309	167	C4H4N3O2-
133.0156	949	C5HN4O-
135.0314	75	C5H3N4O-
149.0343	46	C5H3N5O-
150.0421	999	C5H4N5O-
162.042	202	C6H4N5O-
