Mass spectrum: Xylazine; LC-ESI-QFT; MS2; CE: 30%; R=15000; [M+H]+
Name: Xylazine
Name: N-(2,6-dimethylphenyl)-5,6-dihydro-4H-1,3-thiazin-2-amine
Formula: C12H16N2S
Exact mass: 220.1034195
SMILES: CC1=C(C(=CC=C1)C)NC2=NCCCS2
InChI: InChI=1S/C12H16N2S/c1-9-5-3-6-10(2)11(9)14-12-13-7-4-8-15-12/h3,5-6H,4,7-8H2,1-2H3,(H,13,14)
Instrument: Exploris 240 Thermo Scientific
Instrument type: LC-ESI-QFT
Ms type: MS2
Ion mode: POSITIVE
Ionization: ESI
Fragmentation mode: HCD
Collision energy: 30 % (nominal)
Resolution: 15000
Column name: XBridge C18 3.5um, 2.1x50mm, Waters
Retention time: 3.731 min
Base peak: 221.1105
Precursor m/z: 221.1107
Precursor type: [M+H]+
m/z	relative intensity	assigned
90.0373	16	C3H8NS+
221.1106	999	C12H17N2S+
