Mass spectrum: Fluazifop-butyl; LC-ESI-QFT; MS2; CE: 180%; R=15000; [M+H]+
Name: Fluazifop-butyl
Name: butyl 2-[4-[5-(trifluoromethyl)pyridin-2-yl]oxyphenoxy]propanoate
Formula: C19H20F3NO4
Exact mass: 383.1344428
SMILES: CCCCOC(=O)C(C)OC1=CC=C(OC2=CC=C(C=N2)C(F)(F)F)C=C1
InChI: InChI=1S/C19H20F3NO4/c1-3-4-11-25-18(24)13(2)26-15-6-8-16(9-7-15)27-17-10-5-14(12-23-17)19(20,21)22/h5-10,12-13H,3-4,11H2,1-2H3
Instrument: Q Exactive Plus
Instrument type: LC-ESI-QFT
Ms type: MS2
Ion mode: POSITIVE
Ionization: ESI
Fragmentation mode: HCD
Collision energy: 180 % (nominal)
Resolution: 15000
Column name: XBridge C18 3.5um, 2.1x50mm, Waters
Retention time: 13.597 min
Base peak: 384.142
Precursor m/z: 384.1417
Precursor type: [M+H]+
Precursor intensity: 286626437.05
m/z	relative intensity	assigned
50.0151	369	C4H2+
51.0041	87	CHF2+
51.0229	537	C4H3+
52.0181	41	C3H2N+
53.0022	109	C3HO+
53.0385	113	C4H5+
57.0135	105	C3H2F+
61.0072	57	C5H+
62.0151	183	C5H2+
63.0229	695	C5H3+
64.0308	39	C5H4+
65.0386	444	C5H5+
66.0464	31	C5H6+
68.9947	403	CF3+
70.0214	101	C4H3F+
74.0151	401	C6H2+
75.0041	999	C3HF2+
75.0229	211	C6H3+
76.0181	253	C5H2N+
77.0385	67	C6H5+
78.0338	117	C5H4N+
81.0136	30	C5H2F+
81.0335	56	C5H5O+
83.029	57	C5H4F+
86.0152	38	C7H2+
87.0229	124	C7H3+
88.0307	113	C7H4+
89.0385	91	C7H5+
91.0542	50	C7H7+
95.0492	213	C6H7O+
96.0443	34	C5H6NO+
99.0041	208	C5HF2+
99.023	27	C8H3+
99.9992	33	C4F2N+
100.012	42	C5H2F2+
102.0463	93	C8H6+
103.0543	30	C8H7+
107.0292	80	C7H4F+
113.0386	259	C9H5+
114.0342	53	C8H4N+
114.0465	21	C9H6+
115.0541	18	C9H7+
119.0104	43	C5H2F3+
122.0149	60	C10H2+
123.0229	50	C10H3+
126.015	46	C6H2F2N+
131.0294	50	C9H4F+
140.0498	100	C10H6N+
151.035	69	C9H5F2+
