Mass spectrum: Flurprimidol; LC-ESI-QFT; MS2; CE: 45%; R=15000; [M+H]+
Name: Flurprimidol
Name: 2-methyl-1-pyrimidin-5-yl-1-[4-(trifluoromethoxy)phenyl]propan-1-ol
Formula: C15H15F3N2O2
Exact mass: 312.1085624
SMILES: CC(C)C(C1=CC=C(C=C1)OC(F)(F)F)(C2=CN=CN=C2)O
InChI: InChI=1S/C15H15F3N2O2/c1-10(2)14(21,12-7-19-9-20-8-12)11-3-5-13(6-4-11)22-15(16,17)18/h3-10,21H,1-2H3
Instrument: Exploris 240 Thermo Scientific
Instrument type: LC-ESI-QFT
Ms type: MS2
Ion mode: POSITIVE
Ionization: ESI
Fragmentation mode: HCD
Collision energy: 45 % (nominal)
Resolution: 15000
Column name: XBridge C18 3.5um, 2.1x50mm, Waters
Retention time: 9.380 min
Base peak: 313.1155
Precursor m/z: 313.1158
Precursor type: [M+H]+
m/z	relative intensity	assigned
81.0447	140	C4H5N2+
122.0836	14	C7H10N2+
185.0708	29	C11H9N2O+
189.0156	53	C8H4F3O2+
241.0833	14	C13H12F3O+
244.0582	21	C11H9F3NO2+
255.0742	67	C12H10F3N2O+
268.094	30	C14H13F3NO+
269.0529	61	C12H8F3N2O2+
270.0609	999	C12H9F3N2O2+
295.1051	72	C15H14F3N2O+
313.1159	444	C15H16F3N2O2+
