Mass spectrum: Sacubitril; LC-ESI-QFT; MS2; CE: 60%; R=15000; [M+H]+
Name: Sacubitril
Name: AHU-377(Sacubitril)
Name: 4-[[(2S,4R)-5-ethoxy-4-methyl-5-oxidanylidene-1-(4-phenylphenyl)pentan-2-yl]amino]-4-oxidanylidene-butanoic acid
Formula: C24H29NO5
Exact mass: 411.204573
SMILES: CCOC(=O)C(C)CC(CC1=CC=C(C=C1)C2=CC=CC=C2)NC(=O)CCC(=O)O
InChI: InChI=1S/C24H29NO5/c1-3-30-24(29)17(2)15-21(25-22(26)13-14-23(27)28)16-18-9-11-20(12-10-18)19-7-5-4-6-8-19/h4-12,17,21H,3,13-16H2,1-2H3,(H,25,26)(H,27,28)
Instrument: Q Exactive
Instrument type: LC-ESI-QFT
Ms type: MS2
Ion mode: POSITIVE
Ionization: ESI
Fragmentation mode: HCD
Collision energy: 60 % (nominal)
Resolution: 15000
Column name: XBridge C18 3.5um, 2.1x50mm, Waters
Retention time: 10.997 min
Base peak: 412.212
Precursor m/z: 412.2118
Precursor type: [M+H]+
Precursor intensity: 327880907.7
m/z	relative intensity	assigned
69.0335	24	C4H5O+
69.0699	55	C5H9+
73.0284	28	C3H5O2+
98.0601	100	C5H8NO+
101.0233	32	C4H5O3+
165.0699	398	C13H9+
167.0855	398	C13H11+
178.0776	799	C14H10+
179.0854	198	C14H11+
191.086	26	C15H11+
193.1012	999	C15H13+
266.1539	59	C18H20NO+
