Mass spectrum: (E)-1-(2-Chloro-1,3-thiazol-5-yl methyl)-3-methyl-2-nitroguanidine; LC-ESI-QFT; MS2; CE: 45%; R=15000; [M+H]+
Name: (E)-1-(2-Chloro-1,3-thiazol-5-yl methyl)-3-methyl-2-nitroguanidine
Name: 1-[(2-chloro-1,3-thiazol-5-yl)methyl]-2-methyl-3-nitroguanidine
Formula: C6H8ClN5O2S
Exact mass: 249.0087232
SMILES: CN\C(NCC1=CN=C(Cl)S1)=N/[N+]([O-])=O
InChI: InChI=1S/C6H8ClN5O2S/c1-8-6(11-12(13)14)10-3-4-2-9-5(7)15-4/h2H,3H2,1H3,(H2,8,10,11)
Instrument: Q Exactive Plus
Instrument type: LC-ESI-QFT
Ms type: MS2
Ion mode: POSITIVE
Ionization: ESI
Fragmentation mode: HCD
Collision energy: 45 % (nominal)
Resolution: 15000
Column name: XBridge C18 3.5um, 2.1x50mm, Waters
Retention time: 4.165 min
Base peak: 250.016
Precursor m/z: 250.016
Precursor type: [M+H]+
Precursor intensity: 221153798.4
m/z	relative intensity	assigned
57.0447	15	C2H5N2+
70.9949	23	C3H3S+
86.0058	28	C3H4NS+
110.0713	250	C5H8N3+
111.0791	63	C5H9N3+
113.0167	373	C4H5N2S+
119.9669	13	C3H3ClNS+
127.0199	15	C4H5N3S+
131.9669	999	C4H3ClNS+
142.0434	23	C5H8N3S+
146.9776	36	C4H4ClN2S+
147.9855	33	C4H5ClN2S+
153.0231	14	C5H5N4S+
168.0463	102	C6H8N4S+
169.0541	687	C6H9N4S+
172.9809	12	C5H4ClN3S+
174.9725	33	C5H4ClN2OS+
