Mass spectrum: Torasemidecarboxylic acid; LC-ESI-QFT; MS2; CE: 75%; R=17500; [M+H]+
Name: Torasemidecarboxylic acid
Name: Torsemide Carboxylic Acid
Name: 3-[[3-(propan-2-ylcarbamoylsulfamoyl)pyridin-4-yl]amino]benzoic acid
Formula: C16H18N4O5S
Exact mass: 378.0997907
SMILES: CC(C)NC(=O)NS(=O)(=O)C1=C(C=CN=C1)NC2=CC=CC(=C2)C(=O)O
InChI: InChI=1S/C16H18N4O5S/c1-10(2)18-16(23)20-26(24,25)14-9-17-7-6-13(14)19-12-5-3-4-11(8-12)15(21)22/h3-10H,1-2H3,(H,17,19)(H,21,22)(H2,18,20,23)
Instrument: Exploris 240 Orbitrap Thermo Scientific
Instrument type: LC-ESI-QFT
Ms type: MS2
Ion mode: POSITIVE
Ionization: ESI
Fragmentation mode: HCD
Collision energy: 75 % (nominal)
Resolution: 17500
Column name: XBridge C18 3.5um, 2.1x50mm, Waters
Retention time: 4.459 min
Base peak: 379.1067
Precursor m/z: 379.1071
Precursor type: [M+H]+
m/z	relative intensity	assigned
67.0416	6	C4H5N+
81.0446	6	C4H5N2+
98.0057	11	C4H4NS+
115.0542	211	C9H7+
116.0492	8	C8H6N+
125.0167	32	C5H5N2S+
128.0166	10	C5H6NOS+
137.0169	10	C6H5N2S+
140.0495	38	C10H6N+
142.0651	102	C10H8N+
143.0603	18	C9H7N2+
152.0345	6	C7H6NO3+
155.0604	12	C10H7N2+
167.0602	289	C11H7N2+
168.0681	293	C11H8N2+
169.076	999	C11H9N2+
170.0795	13	C6H10N4O2+
171.055	20	C10H7N2O+
175.0323	56	C9H7N2S+
183.0551	69	C5H13NO4S+
185.0714	31	C11H9N2O+
187.0323	50	C10H7N2S+
195.0548	21	C4H11N4O3S+
203.0268	37	C10H7N2OS+
211.05	36	C12H7N2O2+
212.0587	11	C12H8N2O2+
213.0659	150	C12H9N2O2+
216.0354	7	C11H8N2OS+
228.0533	47	C12H8N2O3+
229.0609	44	C12H9N2O3+
231.0219	15	C11H7N2O2S+
259.0176	20	C12H7N2O3S+
260.0253	15	C12H8N2O3S+
277.0291	10	C12H9N2O4S+
