Mass spectrum: Apremilast; LC-ESI-QFT; MS2; CE: 15%; R=15000; [M-H]-
Name: Apremilast
Name: Apremilast, (+/-)-
Name: N-[2-[(1S)-1-(3-ethoxy-4-methoxy-phenyl)-2-methylsulfonyl-ethyl]-1,3-bis(oxidanylidene)isoindol-4-yl]ethanamide
Formula: C22H24N2O7S
Exact mass: 460.1304221
SMILES: CCOC1=C(C=CC(=C1)C(CS(=O)(=O)C)N2C(=O)C3=C(C2=O)C(=CC=C3)NC(=O)C)OC
InChI: InChI=1S/C22H24N2O7S/c1-5-31-19-11-14(9-10-18(19)30-3)17(12-32(4,28)29)24-21(26)15-7-6-8-16(23-13(2)25)20(15)22(24)27/h6-11,17H,5,12H2,1-4H3,(H,23,25)
Instrument: Q Exactive
Instrument type: LC-ESI-QFT
Ms type: MS2
Ion mode: NEGATIVE
Ionization: ESI
Fragmentation mode: HCD
Collision energy: 15 % (nominal)
Resolution: 15000
Column name: XBridge C18 3.5um, 2.1x50mm, Waters
Retention time: 6.801 min
Base peak: 459.1239
Precursor m/z: 459.1231
Precursor type: [M-H]-
Precursor intensity: 240633702.71
m/z	relative intensity	assigned
63.9624	13	O2S-
78.986	128	CH3O2S-
202.0512	35	C11H8NO3-
203.0464	137	C10H7N2O3-
379.1303	14	C21H19N2O5-
441.1129	50	C22H21N2O6S-
459.1235	999	C22H23N2O7S-
