Mass spectrum: Novaluron; LC-ESI-QFT; MS2; CE: 30%; R=15000; [M-H]-
Name: Novaluron
Name: N-[[3-chloro-4-[1,1,2-trifluoro-2-(trifluoromethoxy)ethoxy]phenyl]carbamoyl]-2,6-difluorobenzamide
Formula: C17H9ClF8N2O4
Exact mass: 492.0123102
SMILES: C1=CC(=C(C(=C1)F)C(=O)NC(=O)NC2=CC(=C(C=C2)OC(C(OC(F)(F)F)F)(F)F)Cl)F
InChI: InChI=1S/C17H9ClF8N2O4/c18-8-6-7(4-5-11(8)31-16(22,23)14(21)32-17(24,25)26)27-15(30)28-13(29)12-9(19)2-1-3-10(12)20/h1-6,14H,(H2,27,28,29,30)
Instrument: Exploris 240 Thermo Scientific
Instrument type: LC-ESI-QFT
Ms type: MS2
Ion mode: NEGATIVE
Ionization: ESI
Fragmentation mode: HCD
Collision energy: 30 % (nominal)
Resolution: 15000
Column name: XBridge C18 3.5um, 2.1x50mm, Waters
Retention time: 13.204 min
Base peak: 491.0054
Precursor m/z: 491.005
Precursor type: [M-H]-
m/z	relative intensity	assigned
84.9907	999	CF3O-
113.0213	82	C6H3F2-
162.9824	102	C3F5O2-
167.986	84	C7H3ClNO2-
305.0137	846	C14H7ClFN2O3-
307.9923	386	C9H3F7O4-
332.9881	272	C10H4ClF6N2O2-
470.9998	404	C17H7ClF7N2O4-
