Mass spectrum: Novaluron; LC-ESI-QFT; MS2; CE: 90%; R=15000; [M+H]+
Name: Novaluron
Name: N-[[3-chloro-4-[1,1,2-trifluoro-2-(trifluoromethoxy)ethoxy]phenyl]carbamoyl]-2,6-difluorobenzamide
Formula: C17H9ClF8N2O4
Exact mass: 492.0123102
SMILES: C1=CC(=C(C(=C1)F)C(=O)NC(=O)NC2=CC(=C(C=C2)OC(C(OC(F)(F)F)F)(F)F)Cl)F
InChI: InChI=1S/C17H9ClF8N2O4/c18-8-6-7(4-5-11(8)31-16(22,23)14(21)32-17(24,25)26)27-15(30)28-13(29)12-9(19)2-1-3-10(12)20/h1-6,14H,(H2,27,28,29,30)
Instrument: Exploris 240 Thermo Scientific
Instrument type: LC-ESI-QFT
Ms type: MS2
Ion mode: POSITIVE
Ionization: ESI
Fragmentation mode: HCD
Collision energy: 90 % (nominal)
Resolution: 15000
Column name: XBridge C18 3.5um, 2.1x50mm, Waters
Retention time: 13.215 min
Base peak: 515.0024
Precursor m/z: 493.0196
Precursor type: [M+H]+
m/z	relative intensity	assigned
63.0229	33	C5H3+
111.0243	14	C6H4FO+
113.0197	32	C6H3F2+
131.0302	16	C6H5F2O+
140.0307	33	C7H4F2N+
141.0144	999	C7H3F2O+
141.0262	172	C6H3F2N2+
148.0304	28	C4H5F5+
158.0413	15	C7H6F2NO+
