Mass spectrum: Nimesulide; LC-ESI-QFT; MS2; CE: 120%; R=17500; [M+H]+
Name: Nimesulide
Name: N-(4-nitro-2-phenoxyphenyl)methanesulfonamide
Formula: C13H12N2O5S
Exact mass: 308.046692484
SMILES: CS(=O)(=O)NC1=C(C=C(C=C1)[N+](=O)[O-])OC2=CC=CC=C2
InChI: InChI=1S/C13H12N2O5S/c1-21(18,19)14-12-8-7-10(15(16)17)9-13(12)20-11-5-3-2-4-6-11/h2-9,14H,1H3
Instrument: Exploris 240 Orbitrap Thermo Scientific
Instrument type: LC-ESI-QFT
Ms type: MS2
Ion mode: POSITIVE
Ionization: ESI
Fragmentation mode: HCD
Collision energy: 120 % (nominal)
Resolution: 17500
Column name: XBridge C18 3.5um, 2.1x50mm, Waters
Retention time: 7.676 min
Base peak: 132.9581
Precursor m/z: 309.054
Precursor type: [M+H]+
m/z	relative intensity	assigned
51.0229	53	C4H3+
52.0307	50	C4H4+
77.0386	56	C6H5+
78.0339	110	C5H4N+
78.0464	93	C6H6+
95.0492	23	C6H7O+
102.0467	72	C8H6+
104.0498	50	C7H6N+
105.045	33	C6H5N2+
115.0543	65	C9H7+
127.0541	138	C10H7+
128.0495	235	C3H12O3S+
128.0622	185	C10H8+
129.0573	63	C9H7N+
145.065	68	C10H9O+
146.06	102	C9H8NO+
154.065	999	C11H8N+
155.0605	149	C10H7N2+
182.0605	42	C12H8NO+
