Mass spectrum: 6-O-Desmethyl-mycophenolic acid; LC-ESI-QFT; MS2; CE: 120%; R=17500; [M+H]+
Name: 6-O-Desmethyl-mycophenolic acid
Name: 6-(4,6-dihydroxy-7-methyl-3-oxo-1H-2-benzofuran-5-yl)-4-methylhex-4-enoic acid
Formula: C16H18O6
Exact mass: 306.1103383
SMILES: CC1=C2COC(=O)C2=C(C(=C1O)CC=C(C)CCC(=O)O)O
InChI: InChI=1S/C16H18O6/c1-8(4-6-12(17)18)3-5-10-14(19)9(2)11-7-22-16(21)13(11)15(10)20/h3,19-20H,4-7H2,1-2H3,(H,17,18)
Instrument: Exploris 240 Orbitrap Thermo Scientific
Instrument type: LC-ESI-QFT
Ms type: MS2
Ion mode: POSITIVE
Ionization: ESI
Fragmentation mode: HCD
Collision energy: 120 % (nominal)
Resolution: 17500
Column name: XBridge C18 3.5um, 2.1x50mm, Waters
Retention time: 6.296 min
Base peak: 307.1173
Precursor m/z: 307.1176
Precursor type: [M+H]+
m/z	relative intensity	assigned
51.0228	23	C4H3+
53.0386	194	C4H5+
55.0178	204	C3H3O+
55.0543	26	C4H7+
65.0386	486	C5H5+
66.0464	64	C5H6+
67.0544	87	C5H7+
77.0385	417	C6H5+
79.0542	970	C6H7+
80.0618	129	C6H8+
81.0336	38	C5H5O+
81.0699	276	C6H9+
83.0128	234	C4H3O2+
89.0388	47	C7H5+
90.0465	77	C7H6+
91.0542	771	C7H7+
93.0335	38	C6H5O+
94.0412	103	C6H6O+
95.0492	262	C6H7O+
103.0541	38	C8H7+
105.0702	38	C8H9+
107.0491	456	C7H7O+
108.0569	169	C7H8O+
109.0647	216	C7H9O+
115.0544	56	C9H7+
119.0492	148	C8H7O+
122.0363	92	C7H6O2+
123.044	44	C7H7O2+
135.044	353	C8H7O2+
136.0519	999	C8H8O2+
137.0597	116	C8H9O2+
145.0284	140	C9H5O2+
163.0389	982	C9H7O3+
165.0547	397	C9H9O3+
181.0497	69	C9H9O4+
193.0498	62	C10H9O4+
