Mass spectrum: Sulfurol; LC-ESI-QFT; MS2; CE: 75%; R=17500; [M+H]+
Name: Sulfurol
Name: 4-Methyl-5-thiazoleethanol
Name: 2-(4-methyl-1,3-thiazol-5-yl)ethanol
Formula: C6H9NOS
Exact mass: 143.0404849
SMILES: CC1=C(SC=N1)CCO
InChI: InChI=1S/C6H9NOS/c1-5-6(2-3-8)9-4-7-5/h4,8H,2-3H2,1H3
Instrument: Exploris 240 Orbitrap Thermo Scientific
Instrument type: LC-ESI-QFT
Ms type: MS2
Ion mode: POSITIVE
Ionization: ESI
Fragmentation mode: HCD
Collision energy: 75 % (nominal)
Resolution: 17500
Column name: XBridge C18 3.5um, 2.1x50mm, Waters
Retention time: 1.742 min
Base peak: 144.0476
Precursor m/z: 144.0478
Precursor type: [M+H]+
m/z	relative intensity	assigned
53.0386	2	C4H5+
55.0541	3	C4H7+
58.995	12	C2H3S+
65.0386	34	C5H5+
68.0494	7	C4H6N+
70.9953	5	C3H3S+
72.0028	6	C3H4S+
73.0107	16	C3H5S+
80.0495	7	C5H6N+
81.0572	14	C5H7N+
85.0109	13	C4H5S+
86.0184	4	C4H6S+
87.0262	8	C4H7S+
97.0107	4	C5H5S+
98.0058	11	C4H4NS+
99.0263	56	C5H7S+
112.0216	19	C5H6NS+
113.0293	999	C5H7NS+
114.0375	37	C5H8NS+
126.0372	381	C6H8NS+
144.0477	680	C6H10NOS+
