Mass spectrum: Zoxamide; LC-ESI-QFT; MS2; CE: 180%; R=15000; [M+H]+
Name: Zoxamide
Name: 3,5-dichloro-N-(1-chloro-3-methyl-2-oxopentan-3-yl)-4-methylbenzamide
Formula: C14H16Cl3NO2
Exact mass: 335.0246618
SMILES: CCC(C)(C(=O)CCl)NC(=O)C1=CC(=C(C(=C1)Cl)C)Cl
InChI: InChI=1S/C14H16Cl3NO2/c1-4-14(3,12(19)7-15)18-13(20)9-5-10(16)8(2)11(17)6-9/h5-6H,4,7H2,1-3H3,(H,18,20)
Instrument: Exploris 240 Thermo Scientific
Instrument type: LC-ESI-QFT
Ms type: MS2
Ion mode: POSITIVE
Ionization: ESI
Fragmentation mode: HCD
Collision energy: 180 % (nominal)
Resolution: 15000
Column name: XBridge C18 3.5um, 2.1x50mm, Waters
Retention time: 11.610 min
Base peak: 336.0318
Precursor m/z: 336.0319
Precursor type: [M+H]+
m/z	relative intensity	assigned
62.0151	142	C5H2+
63.0229	387	C5H3+
72.9839	727	C3H2Cl+
82.945	69	CHCl2+
87.0229	33	C7H3+
88.0307	82	C7H4+
89.0386	999	C7H5+
96.9839	161	C5H2Cl+
98.9996	117	C5H4Cl+
122.9996	121	C7H4Cl+
132.9606	49	C5H3Cl2+
