Mass spectrum: Profenofos; LC-ESI-QFT; MS2; CE: 120%; R=15000; [M+H]+
Name: Profenofos
Name: 4-bromo-2-chloro-1-[ethoxy(propylsulfanyl)phosphoryl]oxybenzene
Formula: C11H15BrClO3PS
Exact mass: 371.9351418
SMILES: CCCSP(=O)(OCC)OC1=C(C=C(C=C1)Br)Cl
InChI: InChI=1S/C11H15BrClO3PS/c1-3-7-18-17(14,15-4-2)16-11-6-5-9(12)8-10(11)13/h5-6,8H,3-4,7H2,1-2H3
Instrument: Exploris 240 Thermo Scientific
Instrument type: LC-ESI-QFT
Ms type: MS2
Ion mode: POSITIVE
Ionization: ESI
Fragmentation mode: HCD
Collision energy: 120 % (nominal)
Resolution: 15000
Column name: XBridge C18 3.5um, 2.1x50mm, Waters
Retention time: 13.098 min
Base peak: 374.9398
Precursor m/z: 372.9424
Precursor type: [M+H]+
m/z	relative intensity	assigned
51.0229	162	C4H3+
52.0308	118	C4H4+
63.0229	378	C5H3+
64.0307	461	C5H4+
64.9787	999	H2O2P+
65.0386	388	C5H5+
74.0152	109	C6H2+
78.9402	490	OPS+
92.0257	341	C6H4O+
96.0029	287	C5H4S+
96.9507	775	H2O2PS+
98.9844	178	CH4ClO3+
100.0074	592	C5H5Cl+
108.0028	175	C6H4S+
109.0105	576	C6H5S+
114.9612	855	H4O3PS+
116.9335	118	C3H2Br+
130.9488	292	C4H4Br+
158.9439	957	C5H4BrO+
176.91	736	C4H3BrOP+
