Mass spectrum: Triasulfuron; LC-ESI-QFT; MS2; CE: 75%; R=15000; [M+H]+
Name: Triasulfuron
Name: 1-[2-(2-chloroethoxy)phenyl]sulfonyl-3-(4-methoxy-6-methyl-1,3,5-triazin-2-yl)urea
Formula: C14H16ClN5O5S
Exact mass: 401.0560673
SMILES: CC1=NC(=NC(=N1)OC)NC(=O)NS(=O)(=O)C2=CC=CC=C2OCCCl
InChI: InChI=1S/C14H16ClN5O5S/c1-9-16-12(19-14(17-9)24-2)18-13(21)20-26(22,23)11-6-4-3-5-10(11)25-8-7-15/h3-6H,7-8H2,1-2H3,(H2,16,17,18,19,20,21)
Instrument: Exploris 240 Thermo Scientific
Instrument type: LC-ESI-QFT
Ms type: MS2
Ion mode: POSITIVE
Ionization: ESI
Fragmentation mode: HCD
Collision energy: 75 % (nominal)
Resolution: 15000
Column name: XBridge C18 3.5um, 2.1x50mm, Waters
Retention time: 5.566 min
Base peak: 402.063
Precursor m/z: 402.0633
Precursor type: [M+H]+
m/z	relative intensity	assigned
56.0494	999	C3H6N+
57.0447	424	C2H5N2+
58.0287	494	C2H4NO+
62.9995	572	C2H4Cl+
65.0385	383	C5H5+
69.0082	292	C2HN2O+
77.0385	123	C6H5+
81.0335	21	C5H5O+
83.0239	340	C3H3N2O+
85.0395	86	C3H5N2O+
91.0541	919	C7H7+
95.0489	86	C6H7O+
100.0504	108	C3H6N3O+
102.0464	35	C8H6+
109.0104	160	C6H5S+
113.0054	501	C5H5OS+
120.0569	89	C8H8O+
121.0283	445	C7H5O2+
137.0054	810	C7H5OS+
141.0769	610	C5H9N4O+
167.056	446	C6H7N4O2+
