Mass spectrum: Hesperitin; LC-ESI-QFT; MS2; CE: 60%; R=17500; [M+H]+
Name: Hesperitin
Name: 5,7-dihydroxy-2-(3-hydroxy-4-methoxyphenyl)-3,4-dihydro-2H-1-benzopyran-4-one
Name: 5,7-dihydroxy-2-(3-hydroxy-4-methoxyphenyl)-2,3-dihydrochromen-4-one
Formula: C16H14O6
Exact mass: 302.0790382
SMILES: COC1=C(C=C(C=C1)C2CC(=O)C3=C(C=C(C=C3O2)O)O)O
InChI: InChI=1S/C16H14O6/c1-21-13-3-2-8(4-10(13)18)14-7-12(20)16-11(19)5-9(17)6-15(16)22-14/h2-6,14,17-19H,7H2,1H3
Instrument: Exploris 240 Orbitrap Thermo Scientific
Instrument type: LC-ESI-QFT
Ms type: MS2
Ion mode: POSITIVE
Ionization: ESI
Fragmentation mode: HCD
Collision energy: 60 % (nominal)
Resolution: 17500
Column name: XBridge C18 3.5um, 2.1x50mm, Waters
Retention time: 6.321 min
Base peak: 303.086
Precursor m/z: 303.0863
Precursor type: [M+H]+
m/z	relative intensity	assigned
67.0178	24	C4H3O+
68.9972	13	C3HO2+
69.0333	9	C4H5O+
89.0386	53	C7H5+
91.0538	4	C7H7+
93.0332	18	C6H5O+
106.041	4	C7H6O+
111.0077	11	C5H3O3+
117.0334	144	C8H5O+
123.0443	21	C7H7O2+
125.0594	13	C7H9O2+
134.0364	22	C8H6O2+
135.0444	14	C8H7O2+
137.0595	40	C8H9O2+
145.0283	144	C9H5O2+
149.0596	117	C9H9O2+
151.0386	10	C8H7O3+
151.0755	5	C9H11O2+
153.0182	999	C7H5O4+
162.0313	9	C9H6O3+
163.0389	66	C9H7O3+
166.0264	4	C8H6O4+
177.0546	261	C10H9O3+
179.0337	38	C9H7O4+
201.0542	4	C12H9O3+
219.0655	4	C12H11O4+
270.0523	6	C15H10O5+
