Mass spectrum: Licarbazepine; LC-ESI-QFT; MS2; CE: 45%; R=17500; [M+H]+
Name: Licarbazepine
Name: 5-hydroxy-5,6-dihydrobenzo[b][1]benzazepine-11-carboxamide
Formula: C15H14N2O2
Exact mass: 254.1055277
SMILES: C1C(C2=CC=CC=C2N(C3=CC=CC=C31)C(=O)N)O
InChI: InChI=1S/C15H14N2O2/c16-15(19)17-12-7-3-1-5-10(12)9-14(18)11-6-2-4-8-13(11)17/h1-8,14,18H,9H2,(H2,16,19)
Instrument: Exploris 240 Orbitrap Thermo Scientific
Instrument type: LC-ESI-QFT
Ms type: MS2
Ion mode: POSITIVE
Ionization: ESI
Fragmentation mode: HCD
Collision energy: 45 % (nominal)
Resolution: 17500
Column name: XBridge C18 3.5um, 2.1x50mm, Waters
Retention time: 5.085 min
Base peak: 237.1021
Precursor m/z: 255.1128
Precursor type: [M+H]+
m/z	relative intensity	assigned
192.0808	166	C14H10N+
193.0881	18	C14H11N+
194.0963	999	C14H12N+
220.0758	10	C15H10NO+
237.1023	106	C15H13N2O+
