Mass spectrum: 13-cis Retinoic acid; LC-ESI-QFT; MS2; CE: 60%; R=15000; [M+H]+
Name: 13-cis Retinoic acid
Name: 3,7-Dimethyl-9-(2,6,6-trimethylcyclohex-1-en-1-yl)nona-2,4,6,8-tetraenoic acid
Name: 3,7-dimethyl-9-(2,6,6-trimethylcyclohexen-1-yl)nona-2,4,6,8-tetraenoic acid
Formula: C20H28O2
Exact mass: 300.2089301
SMILES: CC1=C(C(CCC1)(C)C)C=CC(=CC=CC(=CC(=O)O)C)C
InChI: InChI=1S/C20H28O2/c1-15(8-6-9-16(2)14-19(21)22)11-12-18-17(3)10-7-13-20(18,4)5/h6,8-9,11-12,14H,7,10,13H2,1-5H3,(H,21,22)
Instrument: Exploris 240 Thermo Scientific
Instrument type: LC-ESI-QFT
Ms type: MS2
Ion mode: POSITIVE
Ionization: ESI
Fragmentation mode: HCD
Collision energy: 60 % (nominal)
Resolution: 15000
Column name: XBridge C18 3.5um, 2.1x50mm, Waters
Retention time: 16.524 min
Base peak: 301.2161
Precursor m/z: 301.2162
Precursor type: [M+H]+
m/z	relative intensity	assigned
55.0543	358	C4H7+
57.0699	167	C4H9+
67.0543	281	C5H7+
69.0336	57	C4H5O+
69.0699	570	C5H9+
71.0492	38	C4H7O+
79.0542	143	C6H7+
81.0699	999	C6H9+
83.0856	121	C6H11+
85.0651	40	C5H9O+
91.0542	197	C7H7+
93.0698	246	C7H9+
95.0855	416	C7H11+
105.07	664	C8H9+
107.0856	320	C8H11+
109.0652	39	C7H9O+
109.1013	290	C8H13+
117.07	174	C9H9+
119.0854	520	C9H11+
121.0649	112	C8H9O+
121.1009	167	C9H13+
123.1168	728	C9H15+
129.0701	86	C10H9+
131.0856	515	C10H11+
133.1011	394	C10H13+
144.0932	142	C11H12+
145.0648	49	C10H9O+
145.1012	643	C11H13+
146.0725	69	C10H10O+
146.109	76	C11H14+
147.1171	152	C11H15+
156.0935	63	C12H12+
157.1012	310	C12H13+
158.0727	69	C11H10O+
158.1089	48	C12H14+
159.1167	790	C12H15+
161.0958	336	C11H13O+
161.1323	266	C12H17+
171.0805	101	C12H11O+
171.1165	180	C13H15+
172.0887	86	C12H12O+
173.0965	93	C12H13O+
173.1325	147	C13H17+
175.148	54	C13H19+
185.0962	177	C13H13O+
187.1122	92	C13H15O+
187.1482	194	C14H19+
199.1123	71	C14H15O+
201.1636	109	C15H21+
