Mass spectrum: 12-Hydroxynevirapine; LC-ESI-QFT; MS2; CE: 75%; R=17500; [M+H]+
Name: 12-Hydroxynevirapine
Name: 2-cyclopropyl-7-(hydroxymethyl)-2,4,9,15-tetrazatricyclo[9.4.0.03,8]pentadeca-1(11),3,5,7,12,14-hexaen-10-one
Formula: C15H14N4O2
Exact mass: 282.1116757
SMILES: C1CC1N2C3=C(C=CC=N3)C(=O)NC4=C(C=CN=C42)CO
InChI: InChI=1S/C15H14N4O2/c20-8-9-5-7-17-14-12(9)18-15(21)11-2-1-6-16-13(11)19(14)10-3-4-10/h1-2,5-7,10,20H,3-4,8H2,(H,18,21)
Instrument: Exploris 240 Orbitrap Thermo Scientific
Instrument type: LC-ESI-QFT
Ms type: MS2
Ion mode: POSITIVE
Ionization: ESI
Fragmentation mode: HCD
Collision energy: 75 % (nominal)
Resolution: 17500
Column name: XBridge C18 3.5um, 2.1x50mm, Waters
Retention time: 4.006 min
Base peak: 283.1185
Precursor m/z: 283.119
Precursor type: [M+H]+
m/z	relative intensity	assigned
78.0337	69	C5H4N+
79.0418	27	C5H5N+
93.0447	22	C5H5N2+
96.0446	16	C5H6NO+
105.0448	32	C6H5N2+
116.0494	16	C8H6N+
118.065	32	C8H8N+
121.0397	61	C6H5N2O+
131.0242	28	C7H3N2O+
133.0759	58	C8H9N2+
143.061	21	C9H7N2+
145.076	31	C9H9N2+
161.0712	86	C9H9N2O+
168.0561	46	C10H6N3+
169.0632	70	C10H7N3+
170.0716	55	C10H8N3+
182.0713	451	C11H8N3+
183.0795	92	C11H9N3+
196.0742	999	C11H8N4+
197.0594	34	C13H9O2+
197.0813	195	C11H9N4+
198.0668	54	C11H8N3O+
209.082	25	C12H9N4+
223.062	649	C12H7N4O+
223.11	810	C14H13N3+
225.0773	104	C12H9N4O+
235.0986	54	C14H11N4+
237.0793	40	C15H11NO2+
237.1134	403	C14H13N4+
238.0983	24	C14H12N3O+
248.0821	22	C15H10N3O+
250.0854	139	C14H10N4O+
265.1084	524	C15H13N4O+
