Mass spectrum: Zolpidem carboxylic acid; LC-ESI-QFT; MS2; CE: 60%; R=17500; [M+H]+
Name: Zolpidem carboxylic acid
Name: 4-[3-[2-(dimethylamino)-2-oxoethyl]-6-methylimidazo[1,2-a]pyridin-2-yl]benzoic acid
Formula: C19H19N3O3
Exact mass: 337.1426415
SMILES: CC1=CN2C(=NC(=C2CC(=O)N(C)C)C3=CC=C(C=C3)C(=O)O)C=C1
InChI: InChI=1S/C19H19N3O3/c1-12-4-9-16-20-18(13-5-7-14(8-6-13)19(24)25)15(22(16)11-12)10-17(23)21(2)3/h4-9,11H,10H2,1-3H3,(H,24,25)
Instrument: Exploris 240 Orbitrap Thermo Scientific
Instrument type: LC-ESI-QFT
Ms type: MS2
Ion mode: POSITIVE
Ionization: ESI
Fragmentation mode: HCD
Collision energy: 60 % (nominal)
Resolution: 17500
Column name: XBridge C18 3.5um, 2.1x50mm, Waters
Retention time: 3.313 min
Base peak: 338.1493
Precursor m/z: 338.1499
Precursor type: [M+H]+
m/z	relative intensity	assigned
92.0493	10	C6H6N+
110.0603	9	C6H8NO+
145.0759	12	C9H9N2+
156.0448	3	C10H6NO+
219.0917	16	C15H11N2+
220.0988	47	C15H12N2+
221.1072	143	C15H13N2+
247.0864	8	C16H11N2O+
248.0948	35	C16H12N2O+
249.1016	28	C16H13N2O+
265.097	999	C16H13N2O2+
266.1047	630	C16H14N2O2+
293.0918	441	C17H13N2O3+
338.1499	108	C19H20N3O3+
