Mass spectrum: 1,3,7-Trimethyluric acid; LC-ESI-QFT; MS2; CE: 90%; R=17500; [M+H]+
Name: 1,3,7-Trimethyluric acid
Name: 1,3,7-trimethyl-9H-purine-2,6,8-trione
Formula: C8H10N4O3
Exact mass: 210.0752902
SMILES: CN1C2=C(NC1=O)N(C(=O)N(C2=O)C)C
InChI: InChI=1S/C8H10N4O3/c1-10-4-5(9-7(10)14)11(2)8(15)12(3)6(4)13/h1-3H3,(H,9,14)
Instrument: Exploris 240 Orbitrap Thermo Scientific
Instrument type: LC-ESI-QFT
Ms type: MS2
Ion mode: POSITIVE
Ionization: ESI
Fragmentation mode: HCD
Collision energy: 90 % (nominal)
Resolution: 17500
Column name: XBridge C18 3.5um, 2.1x50mm, Waters
Retention time: 2.602 min
Base peak: 211.0825
Precursor m/z: 211.0826
Precursor type: [M+H]+
m/z	relative intensity	assigned
56.0369	297	C2H4N2+
56.0495	313	C3H6N+
57.0447	555	C2H5N2+
58.0288	63	C2H4NO+
58.0653	51	C3H8N+
67.029	145	C3H3N2+
68.0369	595	C3H4N2+
69.0208	28	C3H3NO+
69.0447	252	C3H5N2+
71.0605	58	C3H7N2+
82.0525	132	C4H6N2+
83.0241	79	C3H3N2O+
83.0477	113	C3H5N3+
83.0604	754	C4H7N2+
84.0318	211	C3H4N2O+
85.0396	999	C3H5N2O+
97.0761	32	C5H9N2+
98.0474	134	C4H6N2O+
98.0715	30	C4H8N3+
99.0554	173	C4H7N2O+
110.035	77	C4H4N3O+
111.0427	257	C4H5N3O+
124.0509	93	C5H6N3O+
125.0582	114	C5H7N3O+
126.0662	538	C5H8N3O+
137.0458	122	C5H5N4O+
138.0296	219	C5H4N3O2+
139.0375	801	C5H5N3O2+
142.0615	27	C5H8N3O2+
151.0616	137	C6H7N4O+
152.069	179	C6H8N4O+
153.053	111	C6H7N3O2+
154.0612	60	C6H8N3O2+
196.0589	345	C7H8N4O3+
211.0825	48	C8H11N4O3+
