Mass spectrum: 1,3,7-Trimethyluric acid; LC-ESI-QFT; MS2; CE: 75%; R=17500; [M+H]+
Name: 1,3,7-Trimethyluric acid
Name: 1,3,7-trimethyl-9H-purine-2,6,8-trione
Formula: C8H10N4O3
Exact mass: 210.0752902
SMILES: CN1C2=C(NC1=O)N(C(=O)N(C2=O)C)C
InChI: InChI=1S/C8H10N4O3/c1-10-4-5(9-7(10)14)11(2)8(15)12(3)6(4)13/h1-3H3,(H,9,14)
Instrument: Exploris 240 Orbitrap Thermo Scientific
Instrument type: LC-ESI-QFT
Ms type: MS2
Ion mode: POSITIVE
Ionization: ESI
Fragmentation mode: HCD
Collision energy: 75 % (nominal)
Resolution: 17500
Column name: XBridge C18 3.5um, 2.1x50mm, Waters
Retention time: 2.602 min
Base peak: 211.0825
Precursor m/z: 211.0826
Precursor type: [M+H]+
m/z	relative intensity	assigned
56.0369	62	C2H4N2+
56.0494	193	C3H6N+
57.0447	283	C2H5N2+
58.0652	25	C3H8N+
67.0292	29	C3H3N2+
68.0368	140	C3H4N2+
69.0447	162	C3H5N2+
71.0604	46	C3H7N2+
82.0526	61	C4H6N2+
83.0478	50	C3H5N3+
83.0604	690	C4H7N2+
84.032	64	C3H4N2O+
85.0396	609	C3H5N2O+
97.0759	28	C5H9N2+
98.0477	54	C4H6N2O+
98.0715	29	C4H8N3+
99.0553	130	C4H7N2O+
110.035	62	C4H4N3O+
110.0715	38	C5H8N3+
111.0427	227	C4H5N3O+
124.0506	40	C5H6N3O+
124.0869	63	C6H10N3+
125.0584	93	C5H7N3O+
126.0661	999	C5H8N3O+
137.0461	38	C5H5N4O+
138.0299	108	C5H4N3O2+
139.0376	692	C5H5N3O2+
142.0612	61	C5H8N3O2+
151.0611	66	C6H7N4O+
152.0459	22	C6H6N3O2+
152.0694	157	C6H8N4O+
153.0534	158	C6H7N3O2+
154.0611	396	C6H8N3O2+
157.0483	18	C5H7N3O3+
167.0931	36	C7H11N4O+
196.0591	889	C7H8N4O3+
211.0826	213	C8H11N4O3+
