Mass spectrum: Tapentadol O-sulfate; LC-ESI-QFT; MS2; CE: 75%; R=17500; [M+H]+
Name: Tapentadol O-sulfate
Name: [3-[1-(dimethylamino)-2-methylpentan-3-yl]phenyl] hydrogen sulfate
Formula: C14H23NO4S
Exact mass: 301.1347792
SMILES: CCC(C1=CC(=CC=C1)OS(=O)(=O)O)C(C)CN(C)C
InChI: InChI=1S/C14H23NO4S/c1-5-14(11(2)10-15(3)4)12-7-6-8-13(9-12)19-20(16,17)18/h6-9,11,14H,5,10H2,1-4H3,(H,16,17,18)
Instrument: Exploris 240 Orbitrap Thermo Scientific
Instrument type: LC-ESI-QFT
Ms type: MS2
Ion mode: POSITIVE
Ionization: ESI
Fragmentation mode: HCD
Collision energy: 75 % (nominal)
Resolution: 17500
Column name: XBridge C18 3.5um, 2.1x50mm, Waters
Retention time: 4.219 min
Base peak: 302.1418
Precursor m/z: 302.1421
Precursor type: [M+H]+
m/z	relative intensity	assigned
53.0388	2	C4H5+
55.0542	24	C4H7+
57.0698	4	C4H9+
58.0651	32	C3H8N+
77.0386	13	C6H5+
79.0542	14	C6H7+
83.0857	5	C6H11+
91.0542	28	C7H7+
93.0698	57	C7H9+
95.0493	9	C6H7O+
103.0542	41	C8H7+
107.0491	999	C7H7O+
115.0543	8	C9H7+
121.0647	407	C8H9O+
135.0803	66	C9H11O+
187.0056	15	C7H7O4S+
