Mass spectrum: tert-Butyl phenyl glycidyl ether; LC-ESI-QFT; MS2; CE: 60%; R=15000; [M+H]+
Name: tert-Butyl phenyl glycidyl ether
Name: p-tert-Butylphenyl glycidyl ether
Name: 2-[(4-tert-butylphenoxy)methyl]oxirane
Formula: C13H18O2
Exact mass: 206.1306798
SMILES: CC(C)(C)C1=CC=C(OCC2CO2)C=C1
InChI: InChI=1S/C13H18O2/c1-13(2,3)10-4-6-11(7-5-10)14-8-12-9-15-12/h4-7,12H,8-9H2,1-3H3
Instrument: Q Exactive Plus
Instrument type: LC-ESI-QFT
Ms type: MS2
Ion mode: POSITIVE
Ionization: ESI
Fragmentation mode: HCD
Collision energy: 60 % (nominal)
Resolution: 15000
Column name: XBridge C18 3.5um, 2.1x50mm, Waters
Retention time: 11.128 min
Base peak: 224.1645
Precursor m/z: 207.138
Precursor type: [M+H]+
Precursor intensity: 6069981.77
m/z	relative intensity	assigned
57.0699	999	C4H9+
91.0542	155	C7H7+
95.0491	46	C6H7O+
105.0698	279	C8H9+
107.0491	167	C7H7O+
119.0854	52	C9H11+
121.0648	77	C8H9O+
123.0804	97	C8H11O+
131.0857	34	C10H11+
133.0649	73	C9H9O+
135.0805	49	C9H11O+
135.1167	40	C10H15+
144.0936	40	C11H12+
148.0883	22	C10H12O+
163.1115	201	C11H15O+
177.1273	89	C12H17O+
