Mass spectrum: Trimebutine; LC-ESI-QFT; MS2; CE: 45%; R=17500; [M+H]+
Name: Trimebutine
Name: [2-(dimethylamino)-2-phenylbutyl] 3,4,5-trimethoxybenzoate
Formula: C22H29NO5
Exact mass: 387.204573028
SMILES: CCC(COC(=O)C1=CC(=C(C(=C1)OC)OC)OC)(C2=CC=CC=C2)N(C)C
InChI: InChI=1S/C22H29NO5/c1-7-22(23(2)3,17-11-9-8-10-12-17)15-28-21(24)16-13-18(25-4)20(27-6)19(14-16)26-5/h8-14H,7,15H2,1-6H3
Instrument: Exploris 240 Orbitrap Thermo Scientific
Instrument type: LC-ESI-QFT
Ms type: MS2
Ion mode: POSITIVE
Ionization: ESI
Fragmentation mode: HCD
Collision energy: 45 % (nominal)
Resolution: 17500
Column name: XBridge C18 3.5um, 2.1x50mm, Waters
Retention time: 6.755 min
Base peak: 388.2118
Precursor m/z: 388.2118
Precursor type: [M+H]+
m/z	relative intensity	assigned
91.0542	59	C7H7+
109.0649	7	C7H9O+
116.0619	6	C9H8+
129.0699	15	C10H9+
131.0855	453	C10H11+
138.0674	10	C8H10O2+
139.0753	14	C8H11O2+
152.0466	14	C8H8O3+
154.0624	191	C8H10O3+
167.07	28	C9H11O3+
169.086	82	C9H13O3+
195.0651	999	C10H11O4+
198.0522	41	C9H10O5+
213.0756	38	C10H13O5+
