Mass spectrum: Cyphenothrin; LC-ESI-QFT; MS2; CE: 60%; R=15000; [M+H]+
Name: Cyphenothrin
Name: [cyano-(3-phenoxyphenyl)methyl] 2,2-dimethyl-3-(2-methylprop-1-enyl)cyclopropane-1-carboxylate
Formula: C24H25NO3
Exact mass: 375.1834437
SMILES: CC(=CC1C(C1(C)C)C(=O)OC(C#N)C2=CC(=CC=C2)OC3=CC=CC=C3)C
InChI: InChI=1S/C24H25NO3/c1-16(2)13-20-22(24(20,3)4)23(26)28-21(15-25)17-9-8-12-19(14-17)27-18-10-6-5-7-11-18/h5-14,20-22H,1-4H3
Instrument: Exploris 240 Thermo Scientific
Instrument type: LC-ESI-QFT
Ms type: MS2
Ion mode: POSITIVE
Ionization: ESI
Fragmentation mode: HCD
Collision energy: 60 % (nominal)
Resolution: 15000
Column name: XBridge C18 3.5um, 2.1x50mm, Waters
Retention time: 15.687 min
Base peak: 398.172
Precursor m/z: 376.1907
Precursor type: [M+H]+
m/z	relative intensity	assigned
55.0543	54	C4H7+
57.0698	88	C4H9+
59.0491	38	C3H7O+
67.054	150	C5H7+
69.0333	55	C4H5O+
69.0699	51	C5H9+
79.0541	72	C6H7+
81.0697	999	C6H9+
91.0545	17	C7H7+
93.07	52	C7H9+
95.0491	40	C6H7O+
95.0854	172	C7H11+
105.0698	58	C8H9+
107.0853	135	C8H11+
109.0646	95	C7H9O+
109.1008	53	C8H13+
121.1007	51	C9H13+
123.1166	630	C9H15+
133.0519	47	C8H7NO+
133.1011	24	C10H13+
151.1117	54	C10H15O+
153.0695	83	C12H9+
180.0805	134	C13H10N+
181.0643	557	C13H9O+
