Mass spectrum: 2-Hydroxynevirapine; LC-ESI-QFT; MS2; CE: 45%; R=17500; [M+H]+
Name: 2-Hydroxynevirapine
Name: 2-Hydroxy Nevirapine
Name: 2-cyclopropyl-7-methyl-2,4,9,15-tetrazatricyclo[9.4.0.03,8]pentadeca-1(11),3(8),6,12,14-pentaene-5,10-dione
Formula: C15H14N4O2
Exact mass: 282.1116757
SMILES: CC1=CC(=O)NC2=C1NC(=O)C3=C(N2C4CC4)N=CC=C3
InChI: InChI=1S/C15H14N4O2/c1-8-7-11(20)17-14-12(8)18-15(21)10-3-2-6-16-13(10)19(14)9-4-5-9/h2-3,6-7,9H,4-5H2,1H3,(H,17,20)(H,18,21)
Instrument: Exploris 240 Orbitrap Thermo Scientific
Instrument type: LC-ESI-QFT
Ms type: MS2
Ion mode: POSITIVE
Ionization: ESI
Fragmentation mode: HCD
Collision energy: 45 % (nominal)
Resolution: 17500
Column name: XBridge C18 3.5um, 2.1x50mm, Waters
Retention time: 3.847 min
Base peak: 283.1187
Precursor m/z: 283.119
Precursor type: [M+H]+
m/z	relative intensity	assigned
68.0495	8	C4H6N+
95.0604	51	C5H7N2+
108.0807	7	C7H10N+
121.0397	7	C6H5N2O+
123.0552	76	C6H7N2O+
124.0631	52	C6H8N2O+
133.0764	7	C8H9N2+
160.0632	16	C9H8N2O+
161.0709	680	C9H9N2O+
198.0659	20	C11H8N3O+
214.0848	95	C11H10N4O+
215.093	8	C11H11N4O+
227.0683	11	C12H9N3O2+
227.0934	17	C14H13NO2+
228.0766	7	C12H10N3O2+
242.0799	321	C12H10N4O2+
255.1241	34	C14H15N4O+
265.1092	18	C15H13N4O+
266.0921	8	C15H12N3O2+
268.0967	7	C14H12N4O2+
283.119	999	C15H15N4O2+
