Mass spectrum: para-Hydroxyatorvastatin; LC-ESI-QFT; MS2; CE: 60%; R=17500; [M+H]+
Name: para-Hydroxyatorvastatin
Name: 7-[2-(4-fluorophenyl)-4-[(4-hydroxyphenyl)carbamoyl]-3-phenyl-5-propan-2-ylpyrrol-1-yl]-3,5-dihydroxyheptanoic acid
Formula: C33H35FN2O6
Exact mass: 574.2479151
SMILES: CC(C)C1=C(C(=C(N1CCC(CC(CC(=O)O)O)O)C2=CC=C(C=C2)F)C3=CC=CC=C3)C(=O)NC4=CC=C(C=C4)O
InChI: InChI=1S/C33H35FN2O6/c1-20(2)31-30(33(42)35-24-12-14-25(37)15-13-24)29(21-6-4-3-5-7-21)32(22-8-10-23(34)11-9-22)36(31)17-16-26(38)18-27(39)19-28(40)41/h3-15,20,26-27,37-39H,16-19H2,1-2H3,(H,35,42)(H,40,41)
Instrument: Exploris 240 Orbitrap Thermo Scientific
Instrument type: LC-ESI-QFT
Ms type: MS2
Ion mode: POSITIVE
Ionization: ESI
Fragmentation mode: HCD
Collision energy: 60 % (nominal)
Resolution: 17500
Column name: XBridge C18 3.5um, 2.1x50mm, Waters
Retention time: 8.169 min
Base peak: 575.2547
Precursor m/z: 575.2552
Precursor type: [M+H]+
m/z	relative intensity	assigned
71.0127	9	C3H3O2+
79.0542	24	C6H7+
81.0334	5	C5H5O+
83.0493	19	C5H7O+
91.0543	4	C7H7+
101.0595	14	C5H9O2+
104.0494	10	C7H6N+
108.0443	135	C6H6NO+
109.0448	6	C7H6F+
115.0541	14	C9H7+
117.0575	4	C8H7N+
122.04	12	C7H5FN+
129.0701	8	C10H9+
133.0445	10	C9H6F+
136.0393	5	C7H6NO2+
154.0654	9	C11H8N+
203.085	11	C16H11+
209.076	17	C15H10F+
221.0769	4	C16H10F+
230.097	26	C17H12N+
233.0761	46	C17H10F+
235.0792	33	C16H10FN+
236.0864	4	C16H11FN+
237.094	29	C16H12FN+
238.1027	86	C16H13FN+
248.0866	56	C17H11FN+
249.0948	136	C17H12FN+
250.1027	999	C17H13FN+
251.1083	15	C14H16FO3+
252.1186	26	C17H15FN+
259.0928	8	C19H12F+
261.0943	19	C18H12FN+
262.1025	61	C18H13FN+
263.1103	7	C18H14FN+
264.0819	29	C17H11FNO+
264.1187	31	C18H15FN+
275.11	14	C19H14FN+
276.0822	37	C18H11FNO+
276.1179	374	C19H15FN+
277.1253	26	C19H16FN+
278.1342	11	C19H17FN+
289.1267	8	C20H16FN+
290.1344	23	C20H17FN+
292.1495	54	C20H19FN+
300.1192	6	C21H15FN+
302.0972	7	C23H12N+
302.135	48	C21H17FN+
306.1289	33	C20H17FNO+
318.1663	19	C22H21FN+
344.1436	8	C26H18N+
362.1543	51	C26H20NO+
