Mass spectrum: Nitrofurantoin; LC-ESI-QFT; MS2; CE: 60%; R=15000; [M-H]-
Name: Nitrofurantoin
Name: 1-[(5-Nitro-2-furanyl)methylideneamino]imidazolidine-2,4-dione
Name: 1-[(5-nitrofuran-2-yl)methylideneamino]imidazolidine-2,4-dione
Formula: C8H6N4O5
Exact mass: 238.0338193
SMILES: [O-][N+](=O)C1=CC=C(O1)C=NN1CC(=O)NC1=O
InChI: InChI=1S/C8H6N4O5/c13-6-4-11(8(14)10-6)9-3-5-1-2-7(17-5)12(15)16/h1-3H,4H2,(H,10,13,14)
Instrument: Q Exactive Plus
Instrument type: LC-ESI-QFT
Ms type: MS2
Ion mode: NEGATIVE
Ionization: ESI
Fragmentation mode: HCD
Collision energy: 60 % (nominal)
Resolution: 15000
Column name: XBridge C18 3.5um, 2.1x50mm, Waters
Retention time: 3.239 min
Base peak: 237.0266
Precursor m/z: 237.0265
Precursor type: [M-H]-
Precursor intensity: 17106369.99
m/z	relative intensity	assigned
64.0193	113	C4H2N-
65.0032	39	C4HO-
77.0033	999	C5HO-
91.0303	19	C5H3N2-
97.0043	32	C3HN2O2-
108.0091	41	C5H2NO2-
119.025	54	C6H3N2O-
