Mass spectrum: Tolterodine; LC-ESI-QFT; MS2; CE: 75%; R=15000; [M+H]+
Name: Tolterodine
Name: 2-[(1R)-3-[di(propan-2-yl)amino]-1-phenylpropyl]-4-methylphenol
Formula: C22H31NO
Exact mass: 325.2405646
SMILES: CC(C)N(CC[C@H](C1=CC=CC=C1)C1=C(O)C=CC(C)=C1)C(C)C
InChI: InChI=1S/C22H31NO/c1-16(2)23(17(3)4)14-13-20(19-9-7-6-8-10-19)21-15-18(5)11-12-22(21)24/h6-12,15-17,20,24H,13-14H2,1-5H3/t20-/m1/s1
Instrument: Exploris 240 Thermo Scientific
Instrument type: LC-ESI-QFT
Ms type: MS2
Ion mode: POSITIVE
Ionization: ESI
Fragmentation mode: HCD
Collision energy: 75 % (nominal)
Resolution: 15000
Column name: XBridge C18 3.5um, 2.1x50mm, Waters
Retention time: 6.330 min
Base peak: 326.2476
Precursor m/z: 326.2478
Precursor type: [M+H]+
m/z	relative intensity	assigned
55.0179	54	C3H3O+
58.0652	21	C3H8N+
60.081	54	C3H10N+
69.0335	27	C4H5O+
72.0807	260	C4H10N+
86.0964	19	C5H12N+
91.0542	623	C7H7+
93.0698	167	C7H9+
95.0492	32	C6H7O+
115.0542	157	C9H7+
117.0698	401	C9H9+
119.0855	585	C9H11+
121.0648	999	C8H9O+
129.0699	66	C10H9+
141.0702	54	C11H9+
147.0804	453	C10H11O+
154.0782	64	C12H10+
169.1011	81	C13H13+
178.0773	63	C14H10+
179.0854	213	C14H11+
181.0653	42	C13H9O+
182.0725	387	C13H10O+
195.0805	13	C14H11O+
197.0961	540	C14H13O+
202.0777	472	C16H10+
