Mass spectrum: Valerophenone; LC-ESI-QFT; MS2; CE: 30%; R=15000; [M+H]+
Name: Valerophenone
Name: 1-phenylpentan-1-one
Formula: C11H14O
Exact mass: 162.1044651
SMILES: CCCCC(=O)C1=CC=CC=C1
InChI: InChI=1S/C11H14O/c1-2-3-9-11(12)10-7-5-4-6-8-10/h4-8H,2-3,9H2,1H3
Instrument: Exploris 240 Thermo Scientific
Instrument type: LC-ESI-QFT
Ms type: MS2
Ion mode: POSITIVE
Ionization: ESI
Fragmentation mode: HCD
Collision energy: 30 % (nominal)
Resolution: 15000
Column name: XBridge C18 3.5um, 2.1x50mm, Waters
Retention time: 9.378 min
Base peak: 132.9581
Precursor m/z: 163.1117
Precursor type: [M+H]+
m/z	relative intensity	assigned
41.0385	43	C3H5+
57.0698	999	C4H9+
59.0491	35	C3H7O+
71.0491	76	C4H7O+
79.0541	233	C6H7+
85.0647	108	C5H9O+
91.0541	150	C7H7+
103.0541	32	C8H7+
105.0698	49	C8H9+
107.049	198	C7H7O+
117.0697	74	C9H9+
145.1011	52	C11H13+
163.1117	22	C11H15O+
