Mass spectrum: Tris(2-chloropropyl) phosphate; LC-ESI-QFT; MS2; CE: 30%; R=15000; [M+H]+
Name: Tris(2-chloropropyl) phosphate
Formula: C9H18Cl3O4P
Exact mass: 326.0008287
SMILES: CC(COP(=O)(OCC(C)Cl)OCC(C)Cl)Cl
InChI: InChI=1S/C9H18Cl3O4P/c1-7(10)4-14-17(13,15-5-8(2)11)16-6-9(3)12/h7-9H,4-6H2,1-3H3
Instrument: Exploris 240 Thermo Scientific
Instrument type: LC-ESI-QFT
Ms type: MS2
Ion mode: POSITIVE
Ionization: ESI
Fragmentation mode: HCD
Collision energy: 30 % (nominal)
Resolution: 15000
Column name: XBridge C18 3.5um, 2.1x50mm, Waters
Retention time: 9.201 min
Base peak: 132.9579
Precursor m/z: 327.0081
Precursor type: [M+H]+
m/z	relative intensity	assigned
98.9839	999	H4O4P+
174.9916	229	C3H9ClO4P+
250.9991	14	C6H14Cl2O4P+
