Mass spectrum: 3-Desmethyltrimethoprim; LC-ESI-QFT; MS2; CE: 150%; R=17500; [M+H]+
Name: 3-Desmethyltrimethoprim
Name: 5-[(2,4-diaminopyrimidin-5-yl)methyl]-2,3-dimethoxyphenol
Formula: C13H16N4O3
Exact mass: 276.1222404
SMILES: COC1=CC(=CC(=C1OC)O)CC2=CN=C(N=C2N)N
InChI: InChI=1S/C13H16N4O3/c1-19-10-5-7(4-9(18)11(10)20-2)3-8-6-16-13(15)17-12(8)14/h4-6,18H,3H2,1-2H3,(H4,14,15,16,17)
Instrument: Exploris 240 Orbitrap Thermo Scientific
Instrument type: LC-ESI-QFT
Ms type: MS2
Ion mode: POSITIVE
Ionization: ESI
Fragmentation mode: HCD
Collision energy: 150 % (nominal)
Resolution: 17500
Column name: XBridge C18 3.5um, 2.1x50mm, Waters
Retention time: 2.604 min
Base peak: 277.1292
Precursor m/z: 277.1295
Precursor type: [M+H]+
m/z	relative intensity	assigned
51.0229	74	C4H3+
52.0182	102	C3H2N+
53.0023	23	C3HO+
53.0387	37	C4H5+
54.0338	561	C3H4N+
55.0416	35	C3H5N+
65.0386	149	C5H5+
67.0544	35	C5H7+
68.0368	138	C3H4N2+
69.0449	64	C3H5N2+
77.0386	318	C6H5+
78.0341	33	C5H4N+
78.0465	34	C6H6+
79.0292	57	C4H3N2+
79.0417	28	C5H5N+
79.0542	40	C6H7+
80.0496	70	C5H6N+
81.0447	999	C4H5N2+
83.0478	52	C3H5N3+
89.0386	97	C7H5+
90.0338	22	C6H4N+
91.0541	98	C7H7+
92.0496	127	C6H6N+
93.0573	38	C6H7N+
94.053	102	C5H6N2+
94.0651	124	C6H8N+
95.0491	97	C6H7O+
96.0558	47	C4H6N3+
102.0335	23	C7H4N+
103.0544	48	C8H7+
104.0495	170	C7H6N+
105.0448	179	C6H5N2+
106.0402	65	C5H4N3+
106.0528	47	C6H6N2+
109.051	61	C4H5N4+
114.0337	42	C8H4N+
116.0494	143	C8H6N+
117.0449	30	C7H5N2+
118.0653	41	C8H8N+
120.056	84	C6H6N3+
123.0666	126	C5H7N4+
128.0491	120	C9H6N+
129.045	123	C8H5N2+
131.0605	86	C8H7N2+
144.0563	46	C8H6N3+
145.0767	34	C9H9N2+
146.0714	45	C8H8N3+
147.0669	165	C7H7N4+
