Mass spectrum: Diazepam; LC-ESI-QFT; MS2; CE: 60%; R=15000; [M+H]+
Name: Diazepam
Name: 7-chloro-1-methyl-5-phenyl-3H-1,4-benzodiazepin-2-one
Formula: C16H13ClN2O
Exact mass: 284.0716407
SMILES: CN1C2=C(C=C(Cl)C=C2)C(=NCC1=O)C1=CC=CC=C1
InChI: InChI=1S/C16H13ClN2O/c1-19-14-8-7-12(17)9-13(14)16(18-10-15(19)20)11-5-3-2-4-6-11/h2-9H,10H2,1H3
Instrument: Q Exactive Plus
Instrument type: LC-ESI-QFT
Ms type: MS2
Ion mode: POSITIVE
Ionization: ESI
Fragmentation mode: HCD
Collision energy: 60 % (nominal)
Resolution: 15000
Column name: XBridge C18 3.5um, 2.1x50mm, Waters
Retention time: 8.885 min
Base peak: 285.079
Precursor m/z: 285.0789
Precursor type: [M+H]+
Precursor intensity: 504649844.09
m/z	relative intensity	assigned
58.0288	66	C2H4NO+
91.0542	244	C7H7+
95.0492	13	C6H7O+
104.0496	28	C7H6N+
105.0335	69	C7H5O+
113.0152	20	C6H6Cl+
116.0495	49	C8H6N+
117.0573	83	C8H7N+
118.0652	50	C8H8N+
119.073	40	C8H9N+
125.0154	53	C7H6Cl+
126.0231	11	C7H7Cl+
127.0312	11	C7H8Cl+
131.0608	20	C8H7N2+
138.0106	11	C7H5ClN+
139.0184	14	C7H6ClN+
140.0263	17	C7H7ClN+
141.034	38	C7H8ClN+
143.0603	27	C9H7N2+
144.0681	23	C9H8N2+
147.0678	55	C9H9NO+
150.0107	28	C8H5ClN+
154.0418	999	C8H9ClN+
165.0702	15	C13H9+
167.0132	110	C8H6ClNO+
172.063	112	C10H8N2O+
177.0213	14	C9H6ClN2+
179.0369	117	C9H8ClN2+
180.0208	78	C9H7ClNO+
180.0807	12	C13H10N+
182.0365	65	C9H9ClNO+
191.073	12	C14H9N+
192.0809	27	C14H10N+
193.0886	944	C14H11N+
194.0967	28	C14H12N+
204.0809	33	C15H10N+
206.0832	27	C14H10N2+
207.0914	45	C14H11N2+
216.0577	64	C13H11ClN+
220.0993	13	C15H12N2+
221.1075	89	C15H13N2+
222.1151	606	C15H14N2+
226.0421	23	C14H9ClN+
227.0496	76	C14H10ClN+
228.0574	308	C14H11ClN+
230.073	19	C14H13ClN+
241.0525	164	C14H10ClN2+
242.0603	37	C14H11ClN2+
255.0683	81	C15H12ClN2+
257.0839	174	C15H14ClN2+
285.079	166	C16H14ClN2O+
