Mass spectrum: Cyphenothrin; LC-ESI-QFT; MS2; CE: 75%; R=15000; [M+H]+
Name: Cyphenothrin
Name: [cyano-(3-phenoxyphenyl)methyl] 2,2-dimethyl-3-(2-methylprop-1-enyl)cyclopropane-1-carboxylate
Formula: C24H25NO3
Exact mass: 375.1834437
SMILES: CC(=CC1C(C1(C)C)C(=O)OC(C#N)C2=CC(=CC=C2)OC3=CC=CC=C3)C
InChI: InChI=1S/C24H25NO3/c1-16(2)13-20-22(24(20,3)4)23(26)28-21(15-25)17-9-8-12-19(14-17)27-18-10-6-5-7-11-18/h5-14,20-22H,1-4H3
Instrument: Exploris 240 Thermo Scientific
Instrument type: LC-ESI-QFT
Ms type: MS2
Ion mode: POSITIVE
Ionization: ESI
Fragmentation mode: HCD
Collision energy: 75 % (nominal)
Resolution: 15000
Column name: XBridge C18 3.5um, 2.1x50mm, Waters
Retention time: 15.687 min
Base peak: 398.172
Precursor m/z: 376.1907
Precursor type: [M+H]+
m/z	relative intensity	assigned
53.0386	20	C4H5+
55.0542	98	C4H7+
57.07	74	C4H9+
65.0385	21	C5H5+
67.0542	194	C5H7+
69.0332	80	C4H5O+
69.0697	75	C5H9+
77.0385	21	C6H5+
79.0541	170	C6H7+
81.0697	999	C6H9+
91.0541	57	C7H7+
93.0699	57	C7H9+
95.0491	41	C6H7O+
95.0854	147	C7H11+
105.0695	72	C8H9+
107.0854	106	C8H11+
108.0933	22	C8H12+
109.0646	66	C7H9O+
109.1013	26	C8H13+
121.1013	27	C9H13+
123.1167	177	C9H15+
152.0617	101	C12H8+
153.0693	82	C12H9+
181.0643	478	C13H9O+
