Mass spectrum: Sulfentrazone; LC-ESI-QFT; MS2; CE: 45%; R=15000; [M+H]+
Name: Sulfentrazone
Name: N-[2,4-dichloro-5-[4-(difluoromethyl)-3-methyl-5-oxo-1,2,4-triazol-1-yl]phenyl]methanesulfonamide
Formula: C11H10Cl2F2N4O3S
Exact mass: 385.981873
SMILES: CC1=NN(C(=O)N1C(F)F)C1=CC(NS(C)(=O)=O)=C(Cl)C=C1Cl
InChI: InChI=1S/C11H10Cl2F2N4O3S/c1-5-16-19(11(20)18(5)10(14)15)9-4-8(17-23(2,21)22)6(12)3-7(9)13/h3-4,10,17H,1-2H3
Instrument: Q Exactive Plus
Instrument type: LC-ESI-QFT
Ms type: MS2
Ion mode: POSITIVE
Ionization: ESI
Fragmentation mode: HCD
Collision energy: 45 % (nominal)
Resolution: 15000
Column name: XBridge C18 3.5um, 2.1x50mm, Waters
Retention time: 6.517 min
Base peak: 386.9893
Precursor m/z: 386.9891
Precursor type: [M+H]+
Precursor intensity: 79056822.8
m/z	relative intensity	assigned
74.0036	73	C2HFNO+
92.0306	94	C3H4F2N+
136.9899	24	C6H2ClN2+
139.0058	26	C6H4ClN2+
145.9558	39	C5H2Cl2N+
149.0394	48	C4H5F2N3O+
155.0005	224	C6H4ClN2O+
157.9558	125	C6H2Cl2N+
160.9664	13	C8ClNO+
163.9663	147	Cl2FH3N4O+
172.9667	192	C6H3Cl2N2+
173.9744	114	C9HClNO+
178.0165	646	C8H5ClN3+
186.9822	521	C7H5Cl2N2+
198.9459	276	C7HCl2N2O+
212.0021	10	C5H9ClN2O3S+
213.9931	228	C6F2N4O3+
223.038	29	C9H8ClN4O+
232.0082	62	C8H5ClF2N3O+
246.971	39	C8H4Cl2FN3O+
256.9988	27	C9H7Cl2N4O+
258.0069	105	C9H8Cl2N4O+
271.019	173	C7H11ClFN3O3S+
272.0268	66	C10H7ClF2N4O+
273.0346	999	C10H8ClF2N4O+
279.9848	416	C6H11Cl2FN2O3S+
286.9894	146	C7H11Cl2N3O3S+
289.0297	47	C10H8ClF2N4O2+
306.9957	340	C10H7Cl2F2N4O+
308.0036	189	C10H8Cl2F2N4O+
336.992	42	C10H11Cl2N4O3S+
