Mass spectrum: Sacubitrilat; LC-ESI-QFT; MS2; CE: 75%; R=17500; [M+H]+
Name: Sacubitrilat
Name: (2R,4S)-4-(3-carboxypropanoylamino)-2-methyl-5-(4-phenylphenyl)pentanoic Acid
Name: 4-(3-carboxypropanoylamino)-2-methyl-5-(4-phenylphenyl)pentanoic acid
Name: LBQ657
Formula: C22H25NO5
Exact mass: 383.1732729
SMILES: CC(CC(CC1=CC=C(C=C1)C2=CC=CC=C2)NC(=O)CCC(=O)O)C(=O)O
InChI: InChI=1S/C22H25NO5/c1-15(22(27)28)13-19(23-20(24)11-12-21(25)26)14-16-7-9-18(10-8-16)17-5-3-2-4-6-17/h2-10,15,19H,11-14H2,1H3,(H,23,24)(H,25,26)(H,27,28)
Instrument: Exploris 240 Orbitrap Thermo Scientific
Instrument type: LC-ESI-QFT
Ms type: MS2
Ion mode: POSITIVE
Ionization: ESI
Fragmentation mode: HCD
Collision energy: 75 % (nominal)
Resolution: 17500
Column name: XBridge C18 3.5um, 2.1x50mm, Waters
Retention time: 9.223 min
Base peak: 384.1802
Precursor m/z: 384.1805
Precursor type: [M+H]+
m/z	relative intensity	assigned
55.0179	48	C3H3O+
55.0542	10	C4H7+
67.054	11	C5H7+
69.0334	12	C4H5O+
69.0699	55	C5H9+
70.0652	14	C4H8N+
72.0445	30	C3H6NO+
73.0284	57	C3H5O2+
91.0545	7	C7H7+
98.06	81	C5H8NO+
100.0392	39	C4H6NO2+
101.0232	33	C4H5O3+
115.0546	15	C9H7+
152.0621	17	C12H8+
165.0699	366	C13H9+
166.0772	14	C13H10+
167.0855	391	C13H11+
177.0701	22	C14H9+
178.0777	999	C14H10+
179.0854	146	C14H11+
191.0853	37	C15H11+
192.093	29	C15H12+
193.1013	468	C15H13+
196.1126	9	C14H14N+
205.1009	5	C16H13+
206.1099	12	C16H14+
221.132	7	C17H17+
