Mass spectrum: 3-(Trifluoromethyl)aniline; LC-ESI-QFT; MS2; CE: 15%; R=15000; [M+H]+
Name: 3-(Trifluoromethyl)aniline
Formula: C7H6F3N
Exact mass: 161.0452339
SMILES: C1=CC(=CC(=C1)N)C(F)(F)F
InChI: InChI=1S/C7H6F3N/c8-7(9,10)5-2-1-3-6(11)4-5/h1-4H,11H2
Instrument: Exploris 240 Thermo Scientific
Instrument type: LC-ESI-QFT
Ms type: MS2
Ion mode: POSITIVE
Ionization: ESI
Fragmentation mode: HCD
Collision energy: 15 % (nominal)
Resolution: 15000
Column name: XBridge C18 3.5um, 2.1x50mm, Waters
Retention time: 5.806 min
Base peak: 162.0523
Precursor m/z: 162.0525
Precursor type: [M+H]+
m/z	relative intensity	assigned
162.0522	999	C7H7F3N+
