Mass spectrum: Nifedipine; LC-ESI-QFT; MS2; CE: 40%; R=15000; [M+H]+
Name: Nifedipine
Name: dimethyl 2,6-dimethyl-4-(2-nitrophenyl)-1,4-dihydropyridine-3,5-dicarboxylate
Formula: C17H18N2O6
Exact mass: 346.1164863
SMILES: CC1=C(C(C(=C(N1)C)C(=O)OC)C2=CC=CC=C2[N+](=O)[O-])C(=O)OC
InChI: InChI=1S/C17H18N2O6/c1-9-13(16(20)24-3)15(14(10(2)18-9)17(21)25-4)11-7-5-6-8-12(11)19(22)23/h5-8,15,18H,1-4H3
Instrument: Exploris 240 Thermo Scientific
Instrument type: LC-ESI-QFT
Ms type: MS2
Ion mode: POSITIVE
Ionization: ESI
Fragmentation mode: HCD
Collision energy: 40 % (nominal)
Resolution: 15000
Column name: XBridge C18 3.5um, 2.1x50mm, Waters
Retention time: 7.287 min
Base peak: 347.1235
Precursor m/z: 347.1238
Precursor type: [M+H]+
m/z	relative intensity	assigned
115.0542	248	C9H7+
116.0499	24	C8H6N+
122.0236	29	C6H4NO2+
128.0499	36	C9H6N+
128.0623	39	C10H8+
129.0701	49	C10H9+
130.0652	44	C9H8N+
140.0492	82	C10H6N+
141.0575	33	C10H7N+
141.0705	41	C11H9+
142.0655	116	C10H8N+
144.0442	35	C9H6NO+
152.0498	48	C11H6N+
154.0651	143	C11H8N+
155.0603	60	C10H7N2+
166.0651	140	C12H8N+
167.0734	293	C12H9N+
170.0598	125	C11H8NO+
179.0603	190	C12H7N2+
181.0758	171	C12H9N2+
182.0835	101	C12H10N2+
183.0916	128	C12H11N2+
192.0678	51	C13H8N2+
193.0761	643	C13H9N2+
194.0838	516	C13H10N2+
195.0553	50	C12H7N2O+
195.0917	999	C13H11N2+
197.0712	31	C12H9N2O+
202.0776	469	C16H10+
210.0916	61	C14H12NO+
211.0867	109	C13H11N2O+
213.0654	29	C12H9N2O2+
221.0708	163	C14H9N2O+
223.0866	475	C14H11N2O+
224.0706	23	C14H10NO2+
226.0864	179	C14H12NO2+
239.0815	210	C14H11N2O2+
253.0974	241	C15H13N2O2+
