Mass spectrum: Phosalone; LC-ESI-QFT; MS2; CE: 90%; R=15000; [M+H]+
Name: Phosalone
Name: 6-chloro-3-(diethoxyphosphinothioylsulfanylmethyl)-1,3-benzoxazol-2-one
Formula: C12H15ClNO4PS2
Exact mass: 366.9868643
SMILES: CCOP(=S)(OCC)SCN1C2=C(C=C(C=C2)Cl)OC1=O
InChI: InChI=1S/C12H15ClNO4PS2/c1-3-16-19(20,17-4-2)21-8-14-10-6-5-9(13)7-11(10)18-12(14)15/h5-7H,3-4,8H2,1-2H3
Instrument: Q Exactive Plus
Instrument type: LC-ESI-QFT
Ms type: MS2
Ion mode: POSITIVE
Ionization: ESI
Fragmentation mode: HCD
Collision energy: 90 % (nominal)
Resolution: 15000
Column name: XBridge C18 3.5um, 2.1x50mm, Waters
Retention time: 12.216 min
Base peak: 367.9946
Precursor m/z: 367.9941
Precursor type: [M+H]+
Precursor intensity: 198975553.66
m/z	relative intensity	assigned
50.0151	37	C4H2+
51.023	106	C4H3+
53.0022	76	C3HO+
64.9787	52	H2O2P+
65.0386	26	C5H5+
74.0151	66	C6H2+
75.0229	999	C6H3+
76.0182	40	C5H2N+
78.0339	21	C5H4N+
79.0178	11	C5H3O+
84.984	58	C4H2Cl+
86.9997	88	C4H4Cl+
92.0496	13	C6H6N+
93.0336	31	C6H5O+
94.0414	13	C6H6O+
96.9509	17	CH2ClOS+
102.0339	194	C7H4N+
103.0417	68	C7H5N+
110.9997	184	C6H4Cl+
111.0442	38	C6H7O2+
114.9614	300	H4O3PS+
120.0445	96	C7H6NO+
129.0102	435	C6H6ClO+
130.0057	17	C5H5ClNO+
138.0106	23	C7H5ClN+
139.0059	503	C3H7O4S+
