Mass spectrum: Torasemidecarboxylic acid; LC-ESI-QFT; MS2; CE: 120%; R=17500; [M+H]+
Name: Torasemidecarboxylic acid
Name: Torsemide Carboxylic Acid
Name: 3-[[3-(propan-2-ylcarbamoylsulfamoyl)pyridin-4-yl]amino]benzoic acid
Formula: C16H18N4O5S
Exact mass: 378.0997907
SMILES: CC(C)NC(=O)NS(=O)(=O)C1=C(C=CN=C1)NC2=CC=CC(=C2)C(=O)O
InChI: InChI=1S/C16H18N4O5S/c1-10(2)18-16(23)20-26(24,25)14-9-17-7-6-13(14)19-12-5-3-4-11(8-12)15(21)22/h3-10H,1-2H3,(H,17,19)(H,21,22)(H2,18,20,23)
Instrument: Exploris 240 Orbitrap Thermo Scientific
Instrument type: LC-ESI-QFT
Ms type: MS2
Ion mode: POSITIVE
Ionization: ESI
Fragmentation mode: HCD
Collision energy: 120 % (nominal)
Resolution: 17500
Column name: XBridge C18 3.5um, 2.1x50mm, Waters
Retention time: 4.459 min
Base peak: 379.1067
Precursor m/z: 379.1071
Precursor type: [M+H]+
m/z	relative intensity	assigned
65.0386	41	C5H5+
67.0418	12	C4H5N+
75.0231	11	C6H3+
77.0383	8	C6H5+
78.0337	16	C5H4N+
79.0415	9	C5H5N+
81.0446	11	C4H5N2+
89.0385	80	C7H5+
90.0462	26	C7H6+
91.0542	12	C7H7+
113.0386	55	C9H5+
114.0339	21	C8H4N+
114.0464	73	C9H6+
115.0542	999	C9H7+
116.0493	99	C8H6N+
117.0573	70	C8H7N+
128.0492	35	C9H6N+
129.0443	16	C8H5N2+
129.0568	14	CH11N3O2S+
130.0648	12	C9H8N+
137.0169	9	C6H5N2S+
140.0494	477	C10H6N+
141.0447	11	C9H5N2+
141.0572	137	C10H7N+
142.0523	27	C9H6N2+
142.0651	52	C10H8N+
155.0603	49	C10H7N2+
166.0526	90	C11H6N2+
167.0603	211	C11H7N2+
168.0682	414	C11H8N2+
169.0759	187	C11H9N2+
183.0555	19	C5H13NO4S+
185.0709	8	C11H9N2O+
187.0321	14	C10H7N2S+
213.066	31	C12H9N2O2+
