Mass spectrum: Etoxazole; LC-ESI-QFT; MS2; CE: 45%; R=15000; [M+H]+
Name: Etoxazole
Name: 4-(4-tert-butyl-2-ethoxyphenyl)-2-(2,6-difluorophenyl)-4,5-dihydro-1,3-oxazole
Formula: C21H23F2NO2
Exact mass: 359.1696854
SMILES: CCOC1=C(C=CC(=C1)C(C)(C)C)C2COC(=N2)C3=C(C=CC=C3F)F
InChI: InChI=1S/C21H23F2NO2/c1-5-25-18-11-13(21(2,3)4)9-10-14(18)17-12-26-20(24-17)19-15(22)7-6-8-16(19)23/h6-11,17H,5,12H2,1-4H3
Instrument: Exploris 240 Thermo Scientific
Instrument type: LC-ESI-QFT
Ms type: MS2
Ion mode: POSITIVE
Ionization: ESI
Fragmentation mode: HCD
Collision energy: 45 % (nominal)
Resolution: 15000
Column name: XBridge C18 3.5um, 2.1x50mm, Waters
Retention time: 14.471 min
Base peak: 360.1769
Precursor m/z: 360.177
Precursor type: [M+H]+
m/z	relative intensity	assigned
57.0699	197	C4H9+
119.049	10	C8H7O+
121.0647	19	C8H9O+
141.0146	999	C7H3F2O+
147.0803	25	C10H11O+
158.0411	47	C7H6F2NO+
177.1273	83	C12H17O+
233.0774	10	C14H11F2O+
304.1146	40	C17H16F2NO2+
