Mass spectrum: Metolachlor; LC-ESI-QFT; MS2; CE: 60%; R=15000; [M+H]+
Name: Metolachlor
Name: 2-chloro-N-(2-ethyl-6-methylphenyl)-N-(1-methoxypropan-2-yl)acetamide
Formula: C15H22ClNO2
Exact mass: 283.1339066
SMILES: CCC1=C(N(C(C)COC)C(=O)CCl)C(C)=CC=C1
InChI: InChI=1S/C15H22ClNO2/c1-5-13-8-6-7-11(2)15(13)17(14(18)9-16)12(3)10-19-4/h6-8,12H,5,9-10H2,1-4H3
Instrument: Q Exactive Plus
Instrument type: LC-ESI-QFT
Ms type: MS2
Ion mode: POSITIVE
Ionization: ESI
Fragmentation mode: HCD
Collision energy: 60 % (nominal)
Resolution: 15000
Column name: XBridge C18 3.5um, 2.1x50mm, Waters
Retention time: 10.500 min
Base peak: 284.1412
Precursor m/z: 284.1412
Precursor type: [M+H]+
Precursor intensity: 759501235.91
m/z	relative intensity	assigned
73.0648	74	C4H9O+
76.9788	88	C2H2ClO+
91.0543	53	C7H7+
105.0699	10	C8H9+
108.0807	38	C7H10N+
109.0649	22	C7H9O+
117.07	37	C9H9+
118.0655	18	C8H8N+
119.073	28	C8H9N+
119.0855	47	C9H11+
120.0809	49	C8H10N+
130.065	14	C9H8N+
131.0729	26	C9H9N+
132.0808	39	C9H10N+
133.0886	141	C9H11N+
134.0964	412	C9H12N+
135.0801	14	C9H11O+
143.0732	26	C10H9N+
144.081	34	C10H10N+
145.0887	45	C10H11N+
146.0964	149	C10H12N+
147.1042	34	C10H13N+
148.1121	50	C10H14N+
158.0965	73	C11H12N+
159.1044	45	C11H13N+
160.1121	114	C11H14N+
162.0913	26	C10H12NO+
174.1276	11	C12H16N+
176.1433	999	C12H18N+
184.0524	87	C9H11ClNO+
194.073	27	C11H13ClN+
212.0839	36	C11H15ClNO+
252.1149	234	C14H19ClNO+
