Mass spectrum: Flurochloridone; LC-ESI-QFT; MS2; CE: 120%; R=15000; [M+H]+
Name: Flurochloridone
Name: 3-chloro-4-(chloromethyl)-1-[3-(trifluoromethyl)phenyl]pyrrolidin-2-one
Formula: C12H10Cl2F3NO
Exact mass: 311.009154
SMILES: C1C(C(C(=O)N1C2=CC=CC(=C2)C(F)(F)F)Cl)CCl
InChI: InChI=1S/C12H10Cl2F3NO/c13-5-7-6-18(11(19)10(7)14)9-3-1-2-8(4-9)12(15,16)17/h1-4,7,10H,5-6H2
Instrument: Exploris 240 Thermo Scientific
Instrument type: LC-ESI-QFT
Ms type: MS2
Ion mode: POSITIVE
Ionization: ESI
Fragmentation mode: HCD
Collision energy: 120 % (nominal)
Resolution: 15000
Column name: XBridge C18 3.5um, 2.1x50mm, Waters
Retention time: 9.717 min
Base peak: 312.0161
Precursor m/z: 312.0164
Precursor type: [M+H]+
m/z	relative intensity	assigned
51.0229	100	C4H3+
53.0385	897	C4H5+
74.9995	222	C3H4Cl+
77.0386	45	C6H5+
86.9995	47	C4H4Cl+
95.0291	38	C6H4F+
95.0489	39	C6H7O+
101.0198	23	C5H3F2+
109.0448	29	C7H6F+
113.0398	58	C6H6FO+
115.054	84	C9H7+
116.0621	29	C9H8+
125.0196	77	C7H3F2+
127.0351	162	C7H5F2+
129.0568	90	C9H7N+
130.0649	212	C9H8N+
142.0654	35	C10H8N+
143.0731	67	C10H9N+
145.0257	999	C7H4F3+
151.0351	58	C9H5F2+
164.0432	25	C10H6F2+
172.0367	47	C8H5F3N+
172.0555	30	C11H7FN+
178.0462	108	C10H6F2N+
198.052	327	C10H7F3N+
