Mass spectrum: Hesperitin; LC-ESI-QFT; MS2; CE: 45%; R=17500; [M-H]-
Name: Hesperitin
Name: 5,7-dihydroxy-2-(3-hydroxy-4-methoxyphenyl)-3,4-dihydro-2H-1-benzopyran-4-one
Name: 5,7-dihydroxy-2-(3-hydroxy-4-methoxyphenyl)-2,3-dihydrochromen-4-one
Formula: C16H14O6
Exact mass: 302.0790382
SMILES: COC1=C(C=C(C=C1)C2CC(=O)C3=C(C=C(C=C3O2)O)O)O
InChI: InChI=1S/C16H14O6/c1-21-13-3-2-8(4-10(13)18)14-7-12(20)16-11(19)5-9(17)6-15(16)22-14/h2-6,14,17-19H,7H2,1H3
Instrument: Exploris 240 Orbitrap Thermo Scientific
Instrument type: LC-ESI-QFT
Ms type: MS2
Ion mode: NEGATIVE
Ionization: ESI
Fragmentation mode: HCD
Collision energy: 45 % (nominal)
Resolution: 17500
Column name: XBridge C18 3.5um, 2.1x50mm, Waters
Retention time: 6.311 min
Base peak: 301.0717
Precursor m/z: 301.0718
Precursor type: [M-H]-
m/z	relative intensity	assigned
65.0034	15	C4HO-
83.014	37	C4H3O2-
107.014	46	C6H3O2-
108.0219	27	C6H4O2-
124.0167	14	C6H4O3-
125.0245	105	C6H5O3-
134.0373	163	C8H6O2-
135.0456	14	C8H7O2-
136.0166	148	C7H4O3-
149.0609	65	C9H9O2-
151.0037	457	C7H3O4-
152.0116	19	C7H4O4-
158.0375	36	C10H6O2-
160.0167	10	C9H4O3-
164.0116	999	C8H4O4-
173.0607	27	C11H9O2-
174.0322	157	C10H6O3-
175.0408	10	C10H7O3-
176.048	12	C10H8O3-
177.0195	30	C9H5O4-
185.025	20	C11H5O3-
187.0398	12	C11H7O3-
188.0477	26	C11H8O3-
191.0717	25	C11H11O3-
196.0017	38	C8H4O6-
199.04	150	C12H7O3-
200.0481	89	C12H8O3-
201.0195	168	C11H5O4-
202.0276	24	C11H6O4-
213.0553	17	C13H9O3-
214.0639	52	C13H10O3-
215.0344	76	C12H7O4-
215.0719	36	C13H11O3-
216.0426	33	C12H8O4-
224.0479	15	C14H8O3-
227.0344	47	C13H7O4-
230.0587	20	C13H10O4-
233.0823	17	C13H13O4-
240.0435	39	C14H8O4-
241.051	73	C14H9O4-
242.0585	296	C14H10O4-
257.0818	126	C15H13O4-
258.0537	99	C14H10O5-
268.0376	52	C15H8O5-
283.0624	32	C16H11O5-
285.0407	65	C15H9O6-
286.0484	269	C15H10O6-
301.0718	294	C16H13O6-
