Mass spectrum: NFDHA; LC-ESI-QFT; MS2; CE: 15%; R=17500; [M-H]-
Name: NFDHA
Name: Perfluoro-3,6-dioxaheptanoic acid
Name: 2,2-difluoro-2-[1,1,2,2-tetrafluoro-2-(trifluoromethoxy)ethoxy]acetic acid
Formula: C5HF9O4
Exact mass: 295.973112492
SMILES: C(=O)(C(OC(C(OC(F)(F)F)(F)F)(F)F)(F)F)O
InChI: InChI=1S/C5HF9O4/c6-2(7,1(15)16)17-3(8,9)4(10,11)18-5(12,13)14/h(H,15,16)
Instrument: Exploris 240 Orbitrap Thermo Scientific
Instrument type: LC-ESI-QFT
Ms type: MS2
Ion mode: NEGATIVE
Ionization: ESI
Fragmentation mode: HCD
Collision energy: 15 % (nominal)
Resolution: 17500
Column name: XBridge C18 3.5um, 2.1x50mm, Waters
Retention time: 6.607 min
Base peak: 200.9793
Precursor m/z: 294.9658
Precursor type: [M-H]-
m/z	relative intensity	assigned
200.9793	999	C3F7O2-
