Mass spectrum: Flutolanil; LC-ESI-QFT; MS2; CE: 120%; R=15000; [M+H]+
Name: Flutolanil
Name: N-(3-propan-2-yloxyphenyl)-2-(trifluoromethyl)benzamide
Formula: C17H16F3NO2
Exact mass: 323.1133134
SMILES: CC(C)OC1=CC(NC(=O)C2=C(C=CC=C2)C(F)(F)F)=CC=C1
InChI: InChI=1S/C17H16F3NO2/c1-11(2)23-13-7-5-6-12(10-13)21-16(22)14-8-3-4-9-15(14)17(18,19)20/h3-11H,1-2H3,(H,21,22)
Instrument: Q Exactive Plus
Instrument type: LC-ESI-QFT
Ms type: MS2
Ion mode: POSITIVE
Ionization: ESI
Fragmentation mode: HCD
Collision energy: 120 % (nominal)
Resolution: 15000
Column name: XBridge C18 3.5um, 2.1x50mm, Waters
Retention time: 9.605 min
Base peak: 324.1206
Precursor m/z: 324.1206
Precursor type: [M+H]+
Precursor intensity: 603453975.52
m/z	relative intensity	assigned
51.023	32	C4H3+
53.0022	38	C3HO+
65.0386	999	C5H5+
71.0292	16	C4H4F+
75.0229	118	C6H3+
95.0103	10	C3H2F3+
95.029	31	C6H4F+
102.0339	31	C7H4N+
113.0396	126	C6H6FO+
120.0444	22	C7H6NO+
125.0198	99	C7H3F2+
140.0495	25	C10H6N+
145.026	737	C7H4F3+
