Mass spectrum: Dazomet; LC-ESI-QFT; MS2; CE: 75%; R=15000; [M+H]+
Name: Dazomet
Name: 3,5-dimethyl-1,3,5-thiadiazinane-2-thione
Formula: C5H10N2S2
Exact mass: 162.0285403
SMILES: CN1CN(C(=S)SC1)C
InChI: InChI=1S/C5H10N2S2/c1-6-3-7(2)5(8)9-4-6/h3-4H2,1-2H3
Instrument: Exploris 240 Thermo Scientific
Instrument type: LC-ESI-QFT
Ms type: MS2
Ion mode: POSITIVE
Ionization: ESI
Fragmentation mode: HCD
Collision energy: 75 % (nominal)
Resolution: 15000
Column name: XBridge C18 3.5um, 2.1x50mm, Waters
Retention time: 2.623 min
Base peak: 163.0355
Precursor m/z: 163.0358
Precursor type: [M+H]+
m/z	relative intensity	assigned
44.0494	999	C2H6N+
46.9949	19	CH3S+
76.9513	63	CHS2+
90.037	56	C3H8NS+
119.9934	70	C3H6NS2+
