Mass spectrum: Diosmin; LC-ESI-QFT; MS2; CE: 90%; R=15000; [M+H]+
Name: Diosmin
Name: Diosmetin-7-O-rutinoside
Name: 2-(4-methoxy-3-oxidanyl-phenyl)-7-[(2S,3R,4S,5S,6R)-6-[[(2R,3R,4R,5R,6S)-6-methyl-3,4,5-tris(oxidanyl)oxan-2-yl]oxymethyl]-3,4,5-tris(oxidanyl)oxan-2-yl]oxy-5-oxidanyl-chromen-4-one
Formula: C28H32O15
Exact mass: 608.1741203
SMILES: CC1C(C(C(C(O1)OCC2C(C(C(C(O2)OC3=CC(=C4C(=C3)OC(=CC4=O)C5=CC(=C(C=C5)OC)O)O)O)O)O)O)O)O
InChI: InChI=1S/C28H32O15/c1-10-21(32)23(34)25(36)27(40-10)39-9-19-22(33)24(35)26(37)28(43-19)41-12-6-14(30)20-15(31)8-17(42-18(20)7-12)11-3-4-16(38-2)13(29)5-11/h3-8,10,19,21-30,32-37H,9H2,1-2H3
Instrument: Q Exactive
Instrument type: LC-ESI-QFT
Ms type: MS2
Ion mode: POSITIVE
Ionization: ESI
Fragmentation mode: HCD
Collision energy: 90 % (nominal)
Resolution: 15000
Column name: XBridge C18 3.5um, 2.1x50mm, Waters
Retention time: 5.082 min
Base peak: 609.1817
Precursor m/z: 609.1814
Precursor type: [M+H]+
Precursor intensity: 197697617.28
m/z	relative intensity	assigned
68.9971	16	C3HO2+
71.0492	17	C4H7O+
78.0462	11	C6H6+
106.0414	12	C7H6O+
153.0183	245	C7H5O4+
201.0544	20	C12H9O3+
203.0341	26	C11H7O4+
213.0544	15	C13H9O3+
229.0497	329	C13H9O4+
257.0446	153	C14H9O5+
258.0524	999	C14H10O5+
286.0474	110	C15H10O6+
