Mass spectrum: Boscalid; LC-ESI-QFT; MS2; CE: 75%; R=15000; [M+H]+
Name: Boscalid
Name: 2-chloro-N-[2-(4-chlorophenyl)phenyl]pyridine-3-carboxamide
Formula: C18H12Cl2N2O
Exact mass: 342.0326684
SMILES: ClC1=CC=C(C=C1)C1=C(NC(=O)C2=C(Cl)N=CC=C2)C=CC=C1
InChI: InChI=1S/C18H12Cl2N2O/c19-13-9-7-12(8-10-13)14-4-1-2-6-16(14)22-18(23)15-5-3-11-21-17(15)20/h1-11H,(H,22,23)
Instrument: Q Exactive Plus
Instrument type: LC-ESI-QFT
Ms type: MS2
Ion mode: POSITIVE
Ionization: ESI
Fragmentation mode: HCD
Collision energy: 75 % (nominal)
Resolution: 15000
Column name: XBridge C18 3.5um, 2.1x50mm, Waters
Retention time: 9.173 min
Base peak: 343.0403
Precursor m/z: 343.0399
Precursor type: [M+H]+
Precursor intensity: 188620855.64
m/z	relative intensity	assigned
50.0151	14	C4H2+
51.0229	51	C4H3+
76.0182	88	C5H2N+
78.0338	193	C5H4N+
84.984	13	C4H2Cl+
96.0444	457	C5H6NO+
111.9949	193	C5H3ClN+
112.0393	305	C2H9ClN2O+
114.0105	38	C5H5ClN+
130.0055	212	C5H5ClNO+
139.9899	152	C6H3ClNO+
140.0497	22	C10H6N+
152.062	47	C12H8+
167.0603	17	C11H7N2+
177.0572	32	C13H7N+
189.07	12	C15H9+
196.0629	11	C12H8N2O+
202.0784	33	C16H10+
203.073	19	C15H9N+
204.081	11	C15H10N+
216.0811	51	C16H10N+
217.0896	41	C16H11N+
226.0651	16	C17H8N+
227.0731	87	C17H9N+
228.0817	65	C17H10N+
230.0363	10	C13H9ClNO+
238.0419	15	C15H9ClN+
242.0838	162	C17H10N2+
243.0916	351	C17H11N2+
244.0756	34	C17H10NO+
244.0994	117	C17H12N2+
252.0686	23	C18H8N2+
253.076	193	C18H9N2+
254.0842	143	C18H10N2+
262.0415	18	C17H9ClN+
270.0788	74	C18H10N2O+
271.0864	999	C18H11N2O+
272.0943	437	C18H12N2O+
289.0524	67	C18H10ClN2+
305.0482	15	C18H10ClN2O+
307.0628	22	C18H12ClN2O+
