Mass spectrum: Novaluron; LC-ESI-QFT; MS2; CE: 180%; R=15000; [M+H]+
Name: Novaluron
Name: N-[[3-chloro-4-[1,1,2-trifluoro-2-(trifluoromethoxy)ethoxy]phenyl]carbamoyl]-2,6-difluorobenzamide
Formula: C17H9ClF8N2O4
Exact mass: 492.0123102
SMILES: C1=CC(=C(C(=C1)F)C(=O)NC(=O)NC2=CC(=C(C=C2)OC(C(OC(F)(F)F)F)(F)F)Cl)F
InChI: InChI=1S/C17H9ClF8N2O4/c18-8-6-7(4-5-11(8)31-16(22,23)14(21)32-17(24,25)26)27-15(30)28-13(29)12-9(19)2-1-3-10(12)20/h1-6,14H,(H2,27,28,29,30)
Instrument: Exploris 240 Thermo Scientific
Instrument type: LC-ESI-QFT
Ms type: MS2
Ion mode: POSITIVE
Ionization: ESI
Fragmentation mode: HCD
Collision energy: 180 % (nominal)
Resolution: 15000
Column name: XBridge C18 3.5um, 2.1x50mm, Waters
Retention time: 13.215 min
Base peak: 515.0024
Precursor m/z: 493.0196
Precursor type: [M+H]+
m/z	relative intensity	assigned
57.0136	38	C3H2F+
62.0152	161	C5H2+
63.023	999	C5H3+
74.0152	151	C6H2+
75.023	22	C6H3+
93.0136	121	C6H2F+
99.0104	72	C7HN+
100.0183	80	C7H2N+
113.0197	30	C6H3F2+
141.0261	56	C6H3F2N2+
