Mass spectrum: N-Desmethylrosuvastatin; LC-ESI-QFT; MS2; CE: 90%; R=17500; [M-H]-
Name: N-Desmethylrosuvastatin
Name: 7-[4-(4-fluorophenyl)-2-(methanesulfonamido)-6-propan-2-ylpyrimidin-5-yl]-3,5-dihydroxyhept-6-enoic acid
Formula: C21H26FN3O6S
Exact mass: 467.1526348
SMILES: CC(C)C1=NC(=NC(=C1C=CC(CC(CC(=O)O)O)O)C2=CC=C(C=C2)F)NS(=O)(=O)C
InChI: InChI=1S/C21H26FN3O6S/c1-12(2)19-17(9-8-15(26)10-16(27)11-18(28)29)20(13-4-6-14(22)7-5-13)24-21(23-19)25-32(3,30)31/h4-9,12,15-16,26-27H,10-11H2,1-3H3,(H,28,29)(H,23,24,25)
Instrument: Exploris 240 Orbitrap Thermo Scientific
Instrument type: LC-ESI-QFT
Ms type: MS2
Ion mode: NEGATIVE
Ionization: ESI
Fragmentation mode: HCD
Collision energy: 90 % (nominal)
Resolution: 17500
Column name: XBridge C18 3.5um, 2.1x50mm, Waters
Retention time: 5.365 min
Base peak: 466.145
Precursor m/z: 466.1454
Precursor type: [M-H]-
m/z	relative intensity	assigned
50.0037	50	C3N-
52.0193	44	C3H2N-
55.0301	43	C2H3N2-
57.0347	57	C3H5O-
59.0138	348	C2H3O2-
63.9624	999	O2S-
65.0144	56	C3HN2-
66.035	71	C4H4N-
76.9702	229	CHO2S-
78.9859	537	CH3O2S-
79.0303	80	C4H3N2-
83.0501	145	FH6N3O-
85.0295	56	C4H5O2-
91.0304	48	C5H3N2-
93.9969	85	CH4NO2S-
103.9685	131	CN2O2S-
118.9919	550	C2H3N2O2S-
142.0413	59	C8H4N3-
144.0567	44	C8H6N3-
173.052	68	C10H6FN2-
188.0829	46	C10H10N3O-
198.0469	511	C11H5FN3-
200.063	138	C11H7FN3-
228.0933	56	C13H11FN3-
230.1095	47	C10H18N2O2S-
238.0781	140	C11H14N2O2S-
254.1105	100	C15H13FN3-
268.0896	69	C20H12O-
