Mass spectrum: Tepraloxydim; LC-ESI-QFT; MS2; CE: 30%; R=15000; [M+H]+
Name: Tepraloxydim
Name: 2-Cyclohexen-1-one, 2-(1-((((2E)-3-chloro-2-propenyl)oxy)imino)propyl)-3-hydroxy-5-(tetrahydro-2H-pyran-4-yl)-
Name: 2-[N-[(E)-3-chloroprop-2-enoxy]-C-ethylcarbonimidoyl]-3-hydroxy-5-(oxan-4-yl)cyclohex-2-en-1-one
Formula: C17H24ClNO4
Exact mass: 341.1393859
SMILES: CCC(=C1C(=O)CC(CC1=O)C2CCOCC2)NOCC=CCl
InChI: InChI=1S/C17H24ClNO4/c1-2-14(19-23-7-3-6-18)17-15(20)10-13(11-16(17)21)12-4-8-22-9-5-12/h3,6,12-13,19H,2,4-5,7-11H2,1H3
Instrument: Q Exactive Plus
Instrument type: LC-ESI-QFT
Ms type: MS2
Ion mode: POSITIVE
Ionization: ESI
Fragmentation mode: HCD
Collision energy: 30 % (nominal)
Resolution: 15000
Column name: XBridge C18 3.5um, 2.1x50mm, Waters
Retention time: 9.984 min
Base peak: 342.147
Precursor m/z: 342.1467
Precursor type: [M+H]+
Precursor intensity: 337553619.09
m/z	relative intensity	assigned
57.0699	10	C4H9+
58.0652	10	C3H8N+
67.0543	34	C5H7+
70.0651	14	C4H8N+
72.0443	23	C3H6NO+
74.9996	58	C3H4Cl+
79.0542	21	C6H7+
81.0699	22	C6H9+
82.0651	12	C5H8N+
83.0492	110	C5H7O+
85.0647	21	C5H9O+
91.0544	22	C7H7+
93.0699	82	C7H9+
94.0651	33	C6H8N+
95.0492	32	C6H7O+
95.0856	13	C7H11+
96.0444	140	C5H6NO+
96.0807	10	C6H10N+
97.0648	25	C6H9O+
98.0601	123	C5H8NO+
105.0699	37	C8H9+
107.0855	45	C8H11+
108.0809	14	C7H10N+
109.0649	31	C7H9O+
110.06	104	C6H8NO+
111.0806	17	C7H11O+
112.0758	16	C6H10NO+
113.0837	18	C6H11NO+
114.0915	14	C6H12NO+
117.07	36	C9H9+
119.0855	46	C9H11+
121.0649	93	C8H9O+
122.0601	27	C7H8NO+
123.0808	18	C8H11O+
124.0396	17	C6H6NO2+
124.0757	13	C7H10NO+
126.0548	26	C6H8NO2+
131.0854	30	C10H11+
133.0648	18	C9H9O+
133.1011	29	C10H13+
135.0807	44	C9H11O+
136.0758	73	C8H10NO+
137.0595	23	C8H9O2+
138.0551	34	C7H8NO2+
138.0915	101	C8H12NO+
139.0629	24	C7H9NO2+
139.0754	25	C8H11O2+
140.0706	35	C7H10NO2+
143.0855	24	C11H11+
145.1012	40	C11H13+
146.0964	15	C10H12N+
147.0442	10	C9H7O2+
147.0807	26	C10H11O+
148.0757	48	C9H10NO+
149.0594	26	C9H9O2+
152.071	18	C8H10NO2+
159.0801	22	C11H11O+
159.1166	25	C12H15+
160.076	19	C10H10NO+
160.1122	28	C11H14N+
161.0958	39	C11H13O+
162.0912	22	C10H12NO+
163.1117	21	C11H15O+
164.0706	196	C9H10NO2+
165.0909	25	C10H13O2+
166.0863	978	C9H12NO2+
169.101	17	C13H13+
178.1229	15	C11H16NO+
180.1381	12	C11H18NO+
187.1121	40	C13H15O+
188.1069	40	C12H14NO+
190.1225	34	C12H16NO+
194.1181	13	C11H16NO2+
204.1021	23	C12H14NO2+
204.1385	85	C13H18NO+
205.1226	66	C10H20ClNO+
206.1173	20	C12H16NO2+
208.1332	78	C12H18NO2+
222.1488	390	C13H20NO2+
232.1333	59	C14H18NO2+
233.1172	14	C14H17O3+
234.1485	25	C14H20NO2+
250.1438	999	C14H20NO3+
251.1517	129	C14H21NO3+
252.1593	113	C14H22NO3+
342.1466	22	C17H25ClNO4+
