Mass spectrum: Aniracetam; LC-ESI-QFT; MS2; CE: 150%; R=17500; [M+H]+
Name: Aniracetam
Name: 1-(4-methoxybenzoyl)pyrrolidin-2-one
Formula: C12H13NO3
Exact mass: 219.089543276
SMILES: COC1=CC=C(C=C1)C(=O)N2CCCC2=O
InChI: InChI=1S/C12H13NO3/c1-16-10-6-4-9(5-7-10)12(15)13-8-2-3-11(13)14/h4-7H,2-3,8H2,1H3
Instrument: Exploris 240 Orbitrap Thermo Scientific
Instrument type: LC-ESI-QFT
Ms type: MS2
Ion mode: POSITIVE
Ionization: ESI
Fragmentation mode: HCD
Collision energy: 150 % (nominal)
Resolution: 17500
Column name: XBridge C18 3.5um, 2.1x50mm, Waters
Retention time: 4.731 min
Base peak: 220.0966
Precursor m/z: 220.0968
Precursor type: [M+H]+
m/z	relative intensity	assigned
50.0152	35	C4H2+
51.0229	541	C4H3+
53.0386	77	C4H5+
54.0464	37	C4H6+
63.0229	456	C5H3+
64.0307	560	C5H4+
77.0386	897	C6H5+
79.0541	19	C6H7+
81.0337	21	C5H5O+
92.0257	999	C6H4O+
95.0491	238	C6H7O+
