Mass spectrum: Hydroxychloroquine; LC-ESI-QFT; MS2; CE: 60%; R=15000; [M+H]+
Name: Hydroxychloroquine
Name: 2-[4-[(7-chloroquinolin-4-yl)amino]pentyl-ethylamino]ethanol
Name: 2-[4-[(7-chloranylquinolin-4-yl)amino]pentyl-ethyl-amino]ethanol
Formula: C18H26ClN3O
Exact mass: 335.1764401
SMILES: CCN(CCCC(C)NC1=C2C=CC(=CC2=NC=C1)Cl)CCO
InChI: InChI=1S/C18H26ClN3O/c1-3-22(11-12-23)10-4-5-14(2)21-17-8-9-20-18-13-15(19)6-7-16(17)18/h6-9,13-14,23H,3-5,10-12H2,1-2H3,(H,20,21)
Instrument: Q Exactive
Instrument type: LC-ESI-QFT
Ms type: MS2
Ion mode: POSITIVE
Ionization: ESI
Fragmentation mode: HCD
Collision energy: 60 % (nominal)
Resolution: 15000
Column name: XBridge C18 3.5um, 2.1x50mm, Waters
Retention time: 2.686 min
Base peak: 168.5957
Precursor m/z: 336.1837
Precursor type: [M+H]+
Precursor intensity: 84149324.3
m/z	relative intensity	assigned
58.0652	72	C3H8N+
67.0543	14	C5H7+
69.0699	290	C5H9+
86.0963	27	C5H12N+
90.0914	88	C4H12NO+
98.0964	39	C6H12N+
102.0915	703	C5H12NO+
156.0684	90	C10H8N2+
158.154	252	C9H20NO+
163.0182	16	C9H6ClN+
164.0262	69	C9H7ClN+
179.0371	999	C9H8ClN2+
191.0372	646	C10H8ClN2+
205.0528	207	C11H10ClN2+
247.0998	906	C14H16ClN2+
