Mass spectrum: 4-Chloroaniline; LC-ESI-QFT; MS2; CE: 150%; R=15000; [M+H]+
Name: 4-Chloroaniline
Formula: C6H6ClN
Exact mass: 127.0188769
SMILES: NC1=CC=C(Cl)C=C1
InChI: InChI=1S/C6H6ClN/c7-5-1-3-6(8)4-2-5/h1-4H,8H2
Instrument: Q Exactive Plus
Instrument type: LC-ESI-QFT
Ms type: MS2
Ion mode: POSITIVE
Ionization: ESI
Fragmentation mode: HCD
Collision energy: 150 % (nominal)
Resolution: 15000
Column name: XBridge C18 3.5um, 2.1x50mm, Waters
Retention time: 3.190 min
Base peak: 128.0262
Precursor m/z: 128.0262
Precursor type: [M+H]+
Precursor intensity: 610397774.84
m/z	relative intensity	assigned
50.0151	57	C4H2+
51.023	62	C4H3+
54.0338	21	C3H4N+
65.0386	154	C5H5+
66.0464	386	C5H6+
67.0417	15	C4H5N+
74.0151	336	C6H2+
75.0229	999	C6H3+
76.0306	36	C6H4+
78.0339	22	C5H4N+
84.9839	133	C4H2Cl+
86.9996	10	C4H4Cl+
92.0495	129	C6H6N+
93.0573	550	C6H7N+
110.9997	43	C6H4Cl+
