Mass spectrum: 13-cis Retinoic acid; LC-ESI-QFT; MS2; CE: 75%; R=15000; [M+H]+
Name: 13-cis Retinoic acid
Name: 3,7-Dimethyl-9-(2,6,6-trimethylcyclohex-1-en-1-yl)nona-2,4,6,8-tetraenoic acid
Name: 3,7-dimethyl-9-(2,6,6-trimethylcyclohexen-1-yl)nona-2,4,6,8-tetraenoic acid
Formula: C20H28O2
Exact mass: 300.2089301
SMILES: CC1=C(C(CCC1)(C)C)C=CC(=CC=CC(=CC(=O)O)C)C
InChI: InChI=1S/C20H28O2/c1-15(8-6-9-16(2)14-19(21)22)11-12-18-17(3)10-7-13-20(18,4)5/h6,8-9,11-12,14H,7,10,13H2,1-5H3,(H,21,22)
Instrument: Exploris 240 Thermo Scientific
Instrument type: LC-ESI-QFT
Ms type: MS2
Ion mode: POSITIVE
Ionization: ESI
Fragmentation mode: HCD
Collision energy: 75 % (nominal)
Resolution: 15000
Column name: XBridge C18 3.5um, 2.1x50mm, Waters
Retention time: 16.524 min
Base peak: 301.2161
Precursor m/z: 301.2162
Precursor type: [M+H]+
m/z	relative intensity	assigned
53.0387	34	C4H5+
55.0543	404	C4H7+
57.0698	106	C4H9+
67.0543	379	C5H7+
69.0336	43	C4H5O+
69.0699	447	C5H9+
79.0541	331	C6H7+
81.0699	999	C6H9+
83.0855	74	C6H11+
91.0543	420	C7H7+
93.0699	250	C7H9+
95.0492	53	C6H7O+
95.0856	324	C7H11+
105.0699	845	C8H9+
107.0854	217	C8H11+
109.0652	48	C7H9O+
109.1011	121	C8H13+
115.0547	62	C9H7+
117.07	250	C9H9+
119.0856	460	C9H11+
121.0648	153	C8H9O+
123.1169	277	C9H15+
128.0621	86	C10H8+
129.0696	193	C10H9+
130.0777	106	C10H10+
131.0855	576	C10H11+
133.1013	264	C10H13+
135.0806	49	C9H11O+
141.0703	62	C11H9+
142.0776	150	C11H10+
143.0853	202	C11H11+
144.0934	270	C11H12+
145.0647	52	C10H9O+
145.1012	436	C11H13+
146.0726	65	C10H10O+
146.1089	36	C11H14+
155.0857	63	C12H11+
156.0934	108	C12H12+
157.1012	211	C12H13+
158.1092	57	C12H14+
159.1167	285	C12H15+
161.0962	116	C11H13O+
161.1328	137	C12H17+
169.1011	28	C13H13+
171.0806	77	C12H11O+
171.1165	104	C13H15+
172.0884	89	C12H12O+
173.1327	60	C13H17+
187.1479	158	C14H19+
