Mass spectrum: Montelukast; LC-ESI-QFT; MS2; CE: 30%; R=15000; [M+H]+
Name: Montelukast
Name: 2-[1-[[1-[3-[2-(7-chloroquinolin-2-yl)ethenyl]phenyl]-3-[2-(2-hydroxypropan-2-yl)phenyl]propyl]sulfanylmethyl]cyclopropyl]acetic acid
Formula: C35H36ClNO3S
Exact mass: 585.2104427
SMILES: CC(C)(C1=CC=CC=C1CCC(C2=CC=CC(=C2)C=CC3=NC4=C(C=CC(=C4)Cl)C=C3)SCC5(CC5)CC(=O)O)O
InChI: InChI=1S/C35H36ClNO3S/c1-34(2,40)30-9-4-3-7-25(30)13-17-32(41-23-35(18-19-35)22-33(38)39)27-8-5-6-24(20-27)10-15-29-16-12-26-11-14-28(36)21-31(26)37-29/h3-12,14-16,20-21,32,40H,13,17-19,22-23H2,1-2H3,(H,38,39)
Instrument: Exploris 240 Thermo Scientific
Instrument type: LC-ESI-QFT
Ms type: MS2
Ion mode: POSITIVE
Ionization: ESI
Fragmentation mode: HCD
Collision energy: 30 % (nominal)
Resolution: 15000
Column name: XBridge C18 3.5um, 2.1x50mm, Waters
Retention time: 15.027 min
Base peak: 586.2179
Precursor m/z: 586.2177
Precursor type: [M+H]+
m/z	relative intensity	assigned
91.0542	494	C7H7+
105.0698	190	C8H9+
115.0542	86	C9H7+
116.0621	62	C9H8+
117.0697	131	C9H9+
128.0619	77	C10H8+
129.0698	365	C10H9+
131.0854	842	C10H11+
142.0776	138	C11H10+
143.0853	122	C11H11+
157.1011	162	C12H13+
164.0264	43	C9H7ClN+
177.0339	92	C10H8ClN+
180.0211	17	C9H7ClNO+
202.0775	229	C16H10+
215.0858	22	C17H11+
241.0881	47	C18H11N+
242.0964	176	C12H18O3S+
243.104	337	C18H13N+
251.0497	53	C16H10ClN+
262.0419	122	C17H9ClN+
263.0494	53	C17H10ClN+
264.0569	52	C20H8O+
275.0496	75	C18H10ClN+
276.0574	904	C18H11ClN+
277.0652	661	C18H12ClN+
278.073	999	C18H13ClN+
279.0803	85	C18H14ClN+
290.0724	48	C22H10O+
292.0887	386	C19H15ClN+
294.0681	17	C18H13ClNO+
305.0971	77	C14H22ClO3S+
380.1203	41	C26H19ClN+
392.1191	24	C30H16O+
