Mass spectrum: 12-Hydroxynevirapine; LC-ESI-QFT; MS2; CE: 45%; R=17500; [M-H]-
Name: 12-Hydroxynevirapine
Name: 2-cyclopropyl-7-(hydroxymethyl)-2,4,9,15-tetrazatricyclo[9.4.0.03,8]pentadeca-1(11),3,5,7,12,14-hexaen-10-one
Formula: C15H14N4O2
Exact mass: 282.1116757
SMILES: C1CC1N2C3=C(C=CC=N3)C(=O)NC4=C(C=CN=C42)CO
InChI: InChI=1S/C15H14N4O2/c20-8-9-5-7-17-14-12(9)18-15(21)11-2-1-6-16-13(11)19(14)10-3-4-10/h1-2,5-7,10,20H,3-4,8H2,(H,18,21)
Instrument: Exploris 240 Orbitrap Thermo Scientific
Instrument type: LC-ESI-QFT
Ms type: MS2
Ion mode: NEGATIVE
Ionization: ESI
Fragmentation mode: HCD
Collision energy: 45 % (nominal)
Resolution: 17500
Column name: XBridge C18 3.5um, 2.1x50mm, Waters
Retention time: 3.996 min
Base peak: 281.1042
Precursor m/z: 281.1044
Precursor type: [M-H]-
m/z	relative intensity	assigned
168.0567	311	C10H6N3-
174.0674	14	C9H8N3O-
195.0676	150	C11H7N4-
210.0546	120	C11H6N4O-
211.0621	3	C11H7N4O-
222.0546	5	C12H6N4O-
251.0938	999	C14H11N4O-
279.0883	22	C15H11N4O2-
281.1043	40	C15H13N4O2-
