Mass spectrum: Zolpidem carboxylic acid; LC-ESI-QFT; MS2; CE: 120%; R=17500; [M+H]+
Name: Zolpidem carboxylic acid
Name: 4-[3-[2-(dimethylamino)-2-oxoethyl]-6-methylimidazo[1,2-a]pyridin-2-yl]benzoic acid
Formula: C19H19N3O3
Exact mass: 337.1426415
SMILES: CC1=CN2C(=NC(=C2CC(=O)N(C)C)C3=CC=C(C=C3)C(=O)O)C=C1
InChI: InChI=1S/C19H19N3O3/c1-12-4-9-16-20-18(13-5-7-14(8-6-13)19(24)25)15(22(16)11-12)10-17(23)21(2)3/h4-9,11H,10H2,1-3H3,(H,24,25)
Instrument: Exploris 240 Orbitrap Thermo Scientific
Instrument type: LC-ESI-QFT
Ms type: MS2
Ion mode: POSITIVE
Ionization: ESI
Fragmentation mode: HCD
Collision energy: 120 % (nominal)
Resolution: 17500
Column name: XBridge C18 3.5um, 2.1x50mm, Waters
Retention time: 3.313 min
Base peak: 338.1493
Precursor m/z: 338.1499
Precursor type: [M+H]+
m/z	relative intensity	assigned
65.0385	999	C5H5+
66.0464	36	C5H6+
67.0418	25	C4H5N+
77.0386	23	C6H5+
91.0543	38	C7H7+
92.0494	788	C6H6N+
93.0572	264	C6H7N+
103.0543	19	C8H7+
110.06	402	C6H8NO+
115.0545	14	C9H7+
116.0495	31	C8H6N+
117.0571	9	C8H7N+
118.0651	116	C8H8N+
128.0497	38	C9H6N+
143.0602	30	C9H7N2+
145.076	113	C9H9N2+
156.0445	31	C10H6NO+
165.0697	15	C13H9+
191.0732	23	C14H9N+
205.0758	183	C14H9N2+
206.0841	38	C14H10N2+
217.0753	18	C15H9N2+
218.0842	76	C15H10N2+
219.0916	878	C15H11N2+
220.0994	267	C15H12N2+
221.1072	214	C15H13N2+
264.0891	16	C16H12N2O2+
265.0972	168	C16H13N2O2+
