Mass spectrum: Tapentadol O-sulfate; LC-ESI-QFT; MS2; CE: 180%; R=17500; [M+H]+
Name: Tapentadol O-sulfate
Name: [3-[1-(dimethylamino)-2-methylpentan-3-yl]phenyl] hydrogen sulfate
Formula: C14H23NO4S
Exact mass: 301.1347792
SMILES: CCC(C1=CC(=CC=C1)OS(=O)(=O)O)C(C)CN(C)C
InChI: InChI=1S/C14H23NO4S/c1-5-14(11(2)10-15(3)4)12-7-6-8-13(9-12)19-20(16,17)18/h6-9,11,14H,5,10H2,1-4H3,(H,16,17,18)
Instrument: Exploris 240 Orbitrap Thermo Scientific
Instrument type: LC-ESI-QFT
Ms type: MS2
Ion mode: POSITIVE
Ionization: ESI
Fragmentation mode: HCD
Collision energy: 180 % (nominal)
Resolution: 17500
Column name: XBridge C18 3.5um, 2.1x50mm, Waters
Retention time: 4.219 min
Base peak: 302.1418
Precursor m/z: 302.1421
Precursor type: [M+H]+
m/z	relative intensity	assigned
50.0151	96	C4H2+
51.0229	579	C4H3+
53.0386	217	C4H5+
55.0179	141	C3H3O+
58.0652	82	C3H8N+
65.0385	185	C5H5+
77.0385	999	C6H5+
78.0466	61	C6H6+
79.0542	101	C6H7+
81.0335	36	C5H5O+
89.0385	27	C7H5+
91.0542	186	C7H7+
94.0414	48	C6H6O+
95.0491	369	C6H7O+
102.0462	18	C8H6+
107.049	139	C7H7O+
115.0541	55	C9H7+
