Mass spectrum: Valeryl-4-hydroxyvalsartan; LC-ESI-QFT; MS2; CE: 30%; R=17500; [M-H]-
Name: Valeryl-4-hydroxyvalsartan
Name: 2-[4-hydroxypentanoyl-[[4-[2-(2H-tetrazol-5-yl)phenyl]phenyl]methyl]amino]-3-methylbutanoic acid
Formula: C24H29N5O4
Exact mass: 451.2219544
SMILES: CC(C)C(C(=O)O)N(CC1=CC=C(C=C1)C2=CC=CC=C2C3=NNN=N3)C(=O)CCC(C)O
InChI: InChI=1S/C24H29N5O4/c1-15(2)22(24(32)33)29(21(31)13-8-16(3)30)14-17-9-11-18(12-10-17)19-6-4-5-7-20(19)23-25-27-28-26-23/h4-7,9-12,15-16,22,30H,8,13-14H2,1-3H3,(H,32,33)(H,25,26,27,28)
Instrument: Exploris 240 Orbitrap Thermo Scientific
Instrument type: LC-ESI-QFT
Ms type: MS2
Ion mode: NEGATIVE
Ionization: ESI
Fragmentation mode: HCD
Collision energy: 30 % (nominal)
Resolution: 17500
Column name: XBridge C18 3.5um, 2.1x50mm, Waters
Retention time: 6.678 min
Base peak: 450.2145
Precursor m/z: 450.2147
Precursor type: [M-H]-
m/z	relative intensity	assigned
81.0342	5	C5H5O-
99.0451	39	C5H7O2-
101.0603	19	C5H9O2-
116.0717	306	C5H10NO2-
117.0551	12	C5H9O3-
128.1081	40	C7H14NO-
154.1236	103	C9H16NO-
156.1027	12	C8H14NO2-
165.071	46	C13H9-
170.1187	66	C9H16NO2-
172.1343	286	C9H18NO2-
179.0866	409	C14H11-
192.0814	43	C14H10N-
207.0927	12	C14H11N2-
234.0905	13	C14H10N4-
235.0987	94	C14H11N4-
248.1446	25	C18H18N-
250.1597	40	C18H20N-
276.1505	39	C18H18N3-
278.1655	10	C18H20N3-
294.15	55	C19H20NO2-
304.1568	194	C18H18N5-
307.1454	117	C19H19N2O2-
350.162	999	C19H20N5O2-
406.2254	53	C23H28N5O2-
450.2147	255	C24H28N5O4-
