Mass spectrum: Valeryl-4-hydroxyvalsartan; LC-ESI-QFT; MS2; CE: 120%; R=17500; [M+H]+
Name: Valeryl-4-hydroxyvalsartan
Name: 2-[4-hydroxypentanoyl-[[4-[2-(2H-tetrazol-5-yl)phenyl]phenyl]methyl]amino]-3-methylbutanoic acid
Formula: C24H29N5O4
Exact mass: 451.2219544
SMILES: CC(C)C(C(=O)O)N(CC1=CC=C(C=C1)C2=CC=CC=C2C3=NNN=N3)C(=O)CCC(C)O
InChI: InChI=1S/C24H29N5O4/c1-15(2)22(24(32)33)29(21(31)13-8-16(3)30)14-17-9-11-18(12-10-17)19-6-4-5-7-20(19)23-25-27-28-26-23/h4-7,9-12,15-16,22,30H,8,13-14H2,1-3H3,(H,32,33)(H,25,26,27,28)
Instrument: Exploris 240 Orbitrap Thermo Scientific
Instrument type: LC-ESI-QFT
Ms type: MS2
Ion mode: POSITIVE
Ionization: ESI
Fragmentation mode: HCD
Collision energy: 120 % (nominal)
Resolution: 17500
Column name: XBridge C18 3.5um, 2.1x50mm, Waters
Retention time: 6.688 min
Base peak: 452.2288
Precursor m/z: 452.2292
Precursor type: [M+H]+
m/z	relative intensity	assigned
51.0229	28	C4H3+
53.0387	29	C4H5+
55.0543	68	C4H7+
72.0808	15	C4H10N+
77.0385	90	C6H5+
78.0341	11	C5H4N+
80.0496	37	C5H6N+
89.0386	31	C7H5+
91.0547	20	C7H7+
95.049	25	C6H7O+
105.045	35	C6H5N2+
113.0386	26	C9H5+
114.0463	18	C9H6+
115.0538	46	C9H7+
127.0542	76	C10H7+
128.0623	43	C10H8+
138.0469	30	C11H6+
139.0542	81	C11H7+
140.0495	149	C10H6N+
141.0569	19	C10H7N+
145.0648	15	C10H9O+
150.0467	33	C12H6+
151.0542	269	C12H7+
152.062	999	C12H8+
153.0566	23	C11H7N+
153.0701	98	C12H9+
154.0657	29	C11H8N+
155.0605	62	C10H7N2+
162.0464	19	C13H6+
163.0543	249	C13H7+
165.0565	36	C12H7N+
166.0656	27	C12H8N+
169.0648	77	C12H9O+
176.0621	130	C14H8+
178.0645	109	C13H8N+
178.0784	144	C14H10+
179.0604	64	C12H7N2+
180.0806	67	C13H10N+
188.0492	47	C14H6N+
189.0573	66	C14H7N+
190.0652	387	C14H8N+
192.0681	72	C13H8N2+
205.0761	358	C14H9N2+
206.0831	17	C14H10N2+
