Mass spectrum: Diphacinone; LC-ESI-QFT; MS2; CE: 120%; R=15000; [M-H]-
Name: Diphacinone
Name: 2-(2,2-diphenylacetyl)indene-1,3-dione
Formula: C23H16O3
Exact mass: 340.1099444
SMILES: C1=CC=C(C=C1)C(C2=CC=CC=C2)C(=O)C3C(=O)C4=CC=CC=C4C3=O
InChI: InChI=1S/C23H16O3/c24-21-17-13-7-8-14-18(17)22(25)20(21)23(26)19(15-9-3-1-4-10-15)16-11-5-2-6-12-16/h1-14,19-20H
Instrument: Exploris 240 Thermo Scientific
Instrument type: LC-ESI-QFT
Ms type: MS2
Ion mode: NEGATIVE
Ionization: ESI
Fragmentation mode: HCD
Collision energy: 120 % (nominal)
Resolution: 15000
Column name: XBridge C18 3.5um, 2.1x50mm, Waters
Retention time: 12.876 min
Base peak: 339.1026
Precursor m/z: 339.1027
Precursor type: [M-H]-
m/z	relative intensity	assigned
88.0318	999	C7H4-
92.0268	17	C6H4O-
116.0267	151	C8H4O-
165.0708	203	C13H9-
202.0789	231	C16H10-
