Mass spectrum: Amlodipine metabolite M9; LC-ESI-QFT; MS2; CE: 180%; R=17500; [M+H]+
Name: Amlodipine metabolite M9
Name: 3-Ethyl 5-methyl 2-((2-aminoethoxy)methyl)-4-(2-chlorophenyl)-6-methylpyridine-3,5-dicarboxylate
Name: 3-O-ethyl 5-O-methyl 2-(2-aminoethoxymethyl)-4-(2-chlorophenyl)-6-methylpyridine-3,5-dicarboxylate
Name: Dehydroamlodipine
Formula: C20H23ClN2O5
Exact mass: 406.1295495
SMILES: CCOC(=O)C1=C(C(=C(N=C1COCCN)C)C(=O)OC)C2=CC=CC=C2Cl
InChI: InChI=1S/C20H23ClN2O5/c1-4-28-20(25)18-15(11-27-10-9-22)23-12(2)16(19(24)26-3)17(18)13-7-5-6-8-14(13)21/h5-8H,4,9-11,22H2,1-3H3
Instrument: Exploris 240 Orbitrap Thermo Scientific
Instrument type: LC-ESI-QFT
Ms type: MS2
Ion mode: POSITIVE
Ionization: ESI
Fragmentation mode: HCD
Collision energy: 180 % (nominal)
Resolution: 17500
Column name: XBridge C18 3.5um, 2.1x50mm, Waters
Retention time: 6.888 min
Base peak: 407.1365
Precursor m/z: 407.1368
Precursor type: [M+H]+
m/z	relative intensity	assigned
63.0229	119	C5H3+
65.0386	52	C5H5+
75.0229	138	C6H3+
76.0308	102	C6H4+
77.0387	49	C6H5+
87.0228	89	C7H3+
89.0386	209	C7H5+
98.0152	82	C8H2+
99.023	183	C8H3+
113.0385	240	C9H5+
114.0465	113	C9H6+
115.0541	96	C9H7+
123.0231	34	C10H3+
125.0388	55	C10H5+
126.0464	369	C10H6+
127.0541	22	C10H7+
137.0387	92	C11H5+
138.0463	132	C11H6+
139.0542	999	C11H7+
140.0495	177	C10H6N+
140.0616	26	C11H8+
149.0148	74	C9H6Cl+
150.0461	168	C12H6+
151.0418	52	C11H5N+
151.0545	32	C12H7+
152.0627	42	C12H8+
164.0494	80	C12H6N+
166.0654	55	C12H8N+
169.0655	14	C12H9O+
173.0152	23	C11H6Cl+
