Mass spectrum: Fenhexamid; LC-ESI-QFT; MS2; CE: 75%; R=15000; [M-H]-
Name: Fenhexamid
Name: N-(2,3-dichloro-4-hydroxyphenyl)-1-methylcyclohexane-1-carboxamide
Formula: C14H17Cl2NO2
Exact mass: 301.0636341
SMILES: CC1(CCCCC1)C(=O)NC1=C(Cl)C(Cl)=C(O)C=C1
InChI: InChI=1S/C14H17Cl2NO2/c1-14(7-3-2-4-8-14)13(19)17-9-5-6-10(18)12(16)11(9)15/h5-6,18H,2-4,7-8H2,1H3,(H,17,19)
Instrument: Q Exactive Plus
Instrument type: LC-ESI-QFT
Ms type: MS2
Ion mode: NEGATIVE
Ionization: ESI
Fragmentation mode: HCD
Collision energy: 75 % (nominal)
Resolution: 15000
Column name: XBridge C18 3.5um, 2.1x50mm, Waters
Retention time: 10.237 min
Base peak: 300.0565
Precursor m/z: 300.0564
Precursor type: [M-H]-
Precursor intensity: 12160523.46
m/z	relative intensity	assigned
103.0062	26	C6HNO-
138.9831	218	C6H2ClNO-
155.9858	111	C6H3ClNO2-
157.0534	49	C10H7NO-
167.9858	85	C7H3ClNO2-
174.9597	34	C6H3Cl2NO-
180.9937	314	C8H4ClNO2-
184.0406	64	C11H6NO2-
184.0768	65	C12H10NO-
185.0484	47	C11H7NO2-
185.0845	86	C12H11NO-
191.9858	31	C9H3ClNO2-
192.9935	142	C9H4ClNO2-
194.0012	186	C9H5ClNO2-
195.0093	144	C9H6ClNO2-
208.017	85	C10H7ClNO2-
212.0717	131	C13H10NO2-
213.0799	80	C13H11NO2-
220.0171	436	C11H7ClNO2-
221.0248	496	C11H8ClNO2-
234.0333	46	C12H9ClNO2-
248.0484	999	C13H11ClNO2-
249.0564	371	C13H12ClNO2-
264.08	187	C14H15ClNO2-
