Mass spectrum: Perfluorooctanoic acid; LC-ESI-QFT; MS2; CE: 30%; R=15000; [M-H]-
Name: Perfluorooctanoic acid
Name: 2,2,3,3,4,4,5,5,6,6,7,7,8,8,8-pentadecafluorooctanoic acid
Formula: C8HF15O2
Exact mass: 413.9737026
SMILES: OC(=O)C(F)(F)C(F)(F)C(F)(F)C(F)(F)C(F)(F)C(F)(F)C(F)(F)F
InChI: InChI=1S/C8HF15O2/c9-2(10,1(24)25)3(11,12)4(13,14)5(15,16)6(17,18)7(19,20)8(21,22)23/h(H,24,25)
Instrument: Q Exactive Plus
Instrument type: LC-ESI-QFT
Ms type: MS2
Ion mode: NEGATIVE
Ionization: ESI
Fragmentation mode: HCD
Collision energy: 30 % (nominal)
Resolution: 15000
Column name: XBridge C18 3.5um, 2.1x50mm, Waters
Retention time: 11.442 min
Base peak: 412.9664
Precursor m/z: 412.9664
Precursor type: [M-H]-
Precursor intensity: 400397983.66
m/z	relative intensity	assigned
118.9926	123	C2F5-
168.9894	999	C3F7-
218.9863	133	C4F9-
368.9757	29	C7F15-
