Mass spectrum: Clofibrate; LC-ESI-QFT; MS2; CE: 30%; R=15000; [M+H]+
Name: Clofibrate
Name: ethyl 2-(4-chlorophenoxy)-2-methylpropanoate
Formula: C12H15ClO3
Exact mass: 242.070972
SMILES: CCOC(=O)C(C)(C)OC1=CC=C(Cl)C=C1
InChI: InChI=1S/C12H15ClO3/c1-4-15-11(14)12(2,3)16-10-7-5-9(13)6-8-10/h5-8H,4H2,1-3H3
Instrument: Q Exactive Plus
Instrument type: LC-ESI-QFT
Ms type: MS2
Ion mode: POSITIVE
Ionization: ESI
Fragmentation mode: HCD
Collision energy: 30 % (nominal)
Resolution: 15000
Column name: XBridge C18 3.5um, 2.1x50mm, Waters
Retention time: 11.449 min
Base peak: 243.0784
Precursor m/z: 243.0782
Precursor type: [M+H]+
Precursor intensity: 61114957.02
m/z	relative intensity	assigned
59.0491	428	C3H7O+
69.0335	34	C4H5O+
87.0441	658	C4H7O2+
87.0805	511	C5H11O+
115.0753	198	C6H11O2+
129.0099	18	C6H6ClO+
141.0101	113	C7H6ClO+
162.0675	14	C10H10O2+
169.0414	999	C9H10ClO+
179.0257	13	C10H8ClO+
197.0364	353	C10H10ClO2+
