Mass spectrum: Chloridazon; LC-ESI-QFT; MS2; CE: 60%; R=15000; [M+H]+
Name: Chloridazon
Name: 5-amino-4-chloro-2-phenylpyridazin-3-one
Formula: C10H8ClN3O
Exact mass: 221.0355896
SMILES: NC1=C(Cl)C(=O)N(N=C1)C1=CC=CC=C1
InChI: InChI=1S/C10H8ClN3O/c11-9-8(12)6-13-14(10(9)15)7-4-2-1-3-5-7/h1-6H,12H2
Instrument: Q Exactive Plus
Instrument type: LC-ESI-QFT
Ms type: MS2
Ion mode: POSITIVE
Ionization: ESI
Fragmentation mode: HCD
Collision energy: 60 % (nominal)
Resolution: 15000
Column name: XBridge C18 3.5um, 2.1x50mm, Waters
Retention time: 4.559 min
Base peak: 222.043
Precursor m/z: 222.0429
Precursor type: [M+H]+
Precursor intensity: 516363769.41
m/z	relative intensity	assigned
51.023	14	C4H3+
53.0386	75	C4H5+
55.0291	58	C2H3N2+
63.9948	26	CH3ClN+
65.0386	200	C5H5+
67.029	11	C3H3N2+
75.9949	27	C2H3ClN+
77.0385	61	C6H5+
83.0239	39	C3H3N2O+
87.9948	43	C3H3ClN+
92.0495	865	C6H6N+
93.0573	46	C6H7N+
94.0651	234	C6H8N+
95.0492	276	C6H7O+
100.9901	65	C3H2ClN2+
101.9739	16	C3HClNO+
104.0495	999	C7H6N+
105.0448	67	C6H5N2+
119.0604	23	C7H7N2+
128.985	224	C4H2ClN2O+
130.0652	26	C9H8N+
132.0444	22	C8H6NO+
142.0525	14	C9H6N2+
146.0116	155	C4H5ClN3O+
149.0152	19	C9H6Cl+
150.011	17	C8H5ClN+
158.0601	10	C10H8NO+
159.0554	27	C9H7N2O+
186.0663	34	C10H8N3O+
193.0291	94	C10H8ClNO+
222.0429	939	C10H9ClN3O+
