Mass spectrum: 3-Hydroxycotinine; LC-ESI-QFT; MS2; CE: 180%; R=17500; [M+H]+
Name: 3-Hydroxycotinine
Name: 2-Pyrrolidinone, 3-hydroxy-1-methyl-5-(3-pyridinyl)-
Name: 3-hydroxy-1-methyl-5-pyridin-3-ylpyrrolidin-2-one
Formula: C10H12N2O2
Exact mass: 192.0898776
SMILES: CN1C(CC(C1=O)O)C2=CN=CC=C2
InChI: InChI=1S/C10H12N2O2/c1-12-8(5-9(13)10(12)14)7-3-2-4-11-6-7/h2-4,6,8-9,13H,5H2,1H3
Instrument: Exploris 240 Orbitrap Thermo Scientific
Instrument type: LC-ESI-QFT
Ms type: MS2
Ion mode: POSITIVE
Ionization: ESI
Fragmentation mode: HCD
Collision energy: 180 % (nominal)
Resolution: 17500
Column name: XBridge C18 3.5um, 2.1x50mm, Waters
Retention time: 0.962 min
Base peak: 193.0971
Precursor m/z: 193.0972
Precursor type: [M+H]+
m/z	relative intensity	assigned
51.0229	52	C4H3+
53.0386	609	C4H5+
56.0494	42	C3H6N+
57.0573	17	C3H7N+
58.0651	189	C3H8N+
65.0387	15	C5H5+
77.0387	22	C6H5+
78.0338	61	C5H4N+
79.0417	44	C5H5N+
80.0495	999	C5H6N+
91.0541	13	C7H7+
95.0489	11	C6H7O+
96.0439	43	C5H6NO+
106.0652	30	C7H8N+
