Mass spectrum: 5-Chloro-2-methyl-3(2H)-isothiazolone; LC-ESI-QFT; MS2; CE: 120%; R=15000; [M+H]+
Name: 5-Chloro-2-methyl-3(2H)-isothiazolone
Name: 5-Chloro-2-methyl-4-isothiazolin-3-one
Name: 5-chloro-2-methyl-1,2-thiazol-3-one
Formula: C4H4ClNOS
Exact mass: 148.9702124
SMILES: CN1SC(Cl)=CC1=O
InChI: InChI=1S/C4H4ClNOS/c1-6-4(7)2-3(5)8-6/h2H,1H3
Instrument: Q Exactive Plus
Instrument type: LC-ESI-QFT
Ms type: MS2
Ion mode: POSITIVE
Ionization: ESI
Fragmentation mode: HCD
Collision energy: 120 % (nominal)
Resolution: 15000
Column name: XBridge C18 3.5um, 2.1x50mm, Waters
Retention time: 3.393 min
Base peak: 149.9776
Precursor m/z: 149.9775
Precursor type: [M+H]+
Precursor intensity: 734386484.33
m/z	relative intensity	assigned
52.0182	20	C3H2N+
54.0338	12	C3H4N+
56.9795	28	C2HS+
57.9872	76	C2H2S+
58.0287	402	C2H4NO+
58.995	118	C2H3S+
59.9664	21	COS+
59.9903	46	CH2NS+
60.0028	21	C2H4S+
60.984	28	C2H2Cl+
61.9791	26	CHClN+
62.0059	42	CH4NS+
62.9996	24	C2H4Cl+
63.9949	12	CH3ClN+
67.0178	235	C4H3O+
68.9794	42	C3HS+
69.9747	31	C2NS+
69.9872	25	C3H2S+
70.995	138	C3H3S+
71.9904	33	C2H2NS+
72.0026	28	C3H4S+
72.9839	36	C3H2Cl+
73.979	30	C2HClN+
74.0059	65	C2H4NS+
74.9995	42	C3H4Cl+
75.971	19	C2HClO+
78.0106	34	C2H5ClN+
78.9404	67	CClS+
79.9482	65	CHClS+
82.9824	104	C3HNS+
83.9664	217	C3OS+
84.9743	50	C3HOS+
86.0058	54	C3H4NS+
86.9632	999	C3ClO+
87.9947	27	C3H3ClN+
88.9788	10	C3H2ClO+
90.9405	41	C2ClS+
94.9717	19	C2H4ClS+
95.9902	129	C4H2NS+
102.9404	24	C3ClS+
102.9945	50	C4H4ClO+
104.9563	31	C3H2ClS+
106.9591	108	C2H2ClNS+
115.0087	63	C4H5NOS+
118.9353	106	C3ClOS+
134.9539	250	C3H2ClNOS+
149.9777	69	C4H5ClNOS+
