Mass spectrum: 1,7-Dimethyluric acid; LC-ESI-QFT; MS2; CE: 75%; R=17500; [M-H]-
Name: 1,7-Dimethyluric acid
Name: 1,7-dimethyl-3,9-dihydropurine-2,6,8-trione
Formula: C7H8N4O3
Exact mass: 196.0596401
SMILES: CN1C2=C(NC1=O)NC(=O)N(C2=O)C
InChI: InChI=1S/C7H8N4O3/c1-10-3-4(8-6(10)13)9-7(14)11(2)5(3)12/h1-2H3,(H,8,13)(H,9,14)
Instrument: Exploris 240 Orbitrap Thermo Scientific
Instrument type: LC-ESI-QFT
Ms type: MS2
Ion mode: NEGATIVE
Ionization: ESI
Fragmentation mode: HCD
Collision energy: 75 % (nominal)
Resolution: 17500
Column name: XBridge C18 3.5um, 2.1x50mm, Waters
Retention time: 2.320 min
Base peak: 195.0524
Precursor m/z: 195.0524
Precursor type: [M-H]-
m/z	relative intensity	assigned
67.0302	38	C3H3N2-
80.0015	12	C3N2O-
93.0333	20	C4H3N3-
95.0251	60	C4H3N2O-
110.036	304	C4H4N3O-
121.0157	40	C4HN4O-
121.9999	17	C4N3O2-
123.0074	54	C4HN3O2-
136.0393	130	C5H4N4O-
137.0232	999	C5H3N3O2-
138.031	41	C5H4N3O2-
180.0289	899	C6H4N4O3-
195.0526	54	C7H7N4O3-
