Mass spectrum: Fludioxonil; LC-ESI-QFT; MS2; CE: 75%; R=15000; [M-H]-
Name: Fludioxonil
Name: 4-(2,2-difluoro-1,3-benzodioxol-4-yl)-1H-pyrrole-3-carbonitrile
Formula: C12H6F2N2O2
Exact mass: 248.0397339
SMILES: FC1(F)OC2=CC=CC(=C2O1)C1=CNC=C1C#N
InChI: InChI=1S/C12H6F2N2O2/c13-12(14)17-10-3-1-2-8(11(10)18-12)9-6-16-5-7(9)4-15/h1-3,5-6,16H
Instrument: Q Exactive Plus
Instrument type: LC-ESI-QFT
Ms type: MS2
Ion mode: NEGATIVE
Ionization: ESI
Fragmentation mode: HCD
Collision energy: 75 % (nominal)
Resolution: 15000
Column name: XBridge C18 3.5um, 2.1x50mm, Waters
Retention time: 9.492 min
Base peak: 247.0323
Precursor m/z: 247.0325
Precursor type: [M-H]-
Precursor intensity: 372221920.2
m/z	relative intensity	assigned
50.0035	107	C3N-
64.0066	15	C3N2-
65.0145	60	C3HN2-
70.9939	77	C3FO-
89.0145	125	C5HN2-
89.0397	72	C7H5-
94.9936	35	C5FO-
114.0349	24	C8H4N-
115.0301	15	C7H3N2-
124.0194	30	C9H2N-
126.0349	993	C9H4N-
127.0305	49	C8H3N2-
141.0459	76	C9H5N2-
151.0302	340	C10H3N2-
152.0379	189	C10H4N2-
153.0458	99	C10H5N2-
163.0298	10	C11H3N2-
169.0407	493	C10H5N2O-
170.0247	12	C10H4NO2-
179.025	94	C11H3N2O-
180.0329	999	C11H4N2O-
181.0407	114	C11H5N2O-
197.0353	73	C11H5N2O2-
199.0311	35	C11H4FN2O-
247.0324	320	C12H5F2N2O2-
