Mass spectrum: Fenbuconazole; LC-ESI-QFT; MS2; CE: 90%; R=15000; [M+H]+
Name: Fenbuconazole
Name: 4-(4-chlorophenyl)-2-phenyl-2-(1,2,4-triazol-1-ylmethyl)butanenitrile
Formula: C19H17ClN4
Exact mass: 336.1141742
SMILES: C1=CC=C(C=C1)C(CCC2=CC=C(C=C2)Cl)(CN3C=NC=N3)C#N
InChI: InChI=1S/C19H17ClN4/c20-18-8-6-16(7-9-18)10-11-19(12-21,13-24-15-22-14-23-24)17-4-2-1-3-5-17/h1-9,14-15H,10-11,13H2
Instrument: Exploris 240 Thermo Scientific
Instrument type: LC-ESI-QFT
Ms type: MS2
Ion mode: POSITIVE
Ionization: ESI
Fragmentation mode: HCD
Collision energy: 90 % (nominal)
Resolution: 15000
Column name: XBridge C18 3.5um, 2.1x50mm, Waters
Retention time: 10.622 min
Base peak: 337.1211
Precursor m/z: 337.1215
Precursor type: [M+H]+
m/z	relative intensity	assigned
70.0399	635	C2H4N3+
77.0384	10	C6H5+
82.0398	34	C3H4N3+
89.0385	83	C7H5+
90.0462	14	C7H6+
91.0541	105	C7H7+
98.9996	32	C5H4Cl+
103.0541	61	C8H7+
125.0151	999	C7H6Cl+
128.0619	39	C10H8+
