Mass spectrum: Sacubitrilat; LC-ESI-QFT; MS2; CE: 180%; R=17500; [M+H]+
Name: Sacubitrilat
Name: (2R,4S)-4-(3-carboxypropanoylamino)-2-methyl-5-(4-phenylphenyl)pentanoic Acid
Name: 4-(3-carboxypropanoylamino)-2-methyl-5-(4-phenylphenyl)pentanoic acid
Name: LBQ657
Formula: C22H25NO5
Exact mass: 383.1732729
SMILES: CC(CC(CC1=CC=C(C=C1)C2=CC=CC=C2)NC(=O)CCC(=O)O)C(=O)O
InChI: InChI=1S/C22H25NO5/c1-15(22(27)28)13-19(23-20(24)11-12-21(25)26)14-16-7-9-18(10-8-16)17-5-3-2-4-6-17/h2-10,15,19H,11-14H2,1H3,(H,23,24)(H,25,26)(H,27,28)
Instrument: Exploris 240 Orbitrap Thermo Scientific
Instrument type: LC-ESI-QFT
Ms type: MS2
Ion mode: POSITIVE
Ionization: ESI
Fragmentation mode: HCD
Collision energy: 180 % (nominal)
Resolution: 17500
Column name: XBridge C18 3.5um, 2.1x50mm, Waters
Retention time: 9.223 min
Base peak: 384.1802
Precursor m/z: 384.1805
Precursor type: [M+H]+
m/z	relative intensity	assigned
51.023	69	C4H3+
55.018	63	C3H3O+
63.0229	139	C5H3+
65.0386	320	C5H5+
77.0389	71	C6H5+
78.0466	65	C6H6+
89.0386	227	C7H5+
91.0543	208	C7H7+
95.0495	32	C6H7O+
102.0465	152	C8H6+
115.0543	789	C9H7+
126.0467	121	C10H6+
127.0545	39	C10H7+
128.0621	320	C10H8+
139.0543	262	C11H7+
151.0542	348	C12H7+
152.0621	999	C12H8+
163.0545	242	C13H7+
164.0619	217	C13H8+
165.0698	788	C13H9+
169.0652	199	C12H9O+
176.0622	723	C14H8+
177.0702	258	C14H9+
178.0776	190	C14H10+
189.0698	221	C15H9+
191.0858	50	C15H11+
