Mass spectrum: 4-Methylbenzenesulfonic acid; LC-ESI-QFT; MS2; CE: 60%; R=15000; [M-H]-
Name: 4-Methylbenzenesulfonic acid
Name: p-Toluenesulfonic acid
Formula: C7H8O3S
Exact mass: 172.0194151
SMILES: CC1=CC=C(C=C1)S(=O)(=O)O
InChI: InChI=1S/C7H8O3S/c1-6-2-4-7(5-3-6)11(8,9)10/h2-5H,1H3,(H,8,9,10)
Instrument: Exploris 240 Thermo Scientific
Instrument type: LC-ESI-QFT
Ms type: MS2
Ion mode: NEGATIVE
Ionization: ESI
Fragmentation mode: HCD
Collision energy: 60 % (nominal)
Resolution: 15000
Column name: XBridge C18 3.5um, 2.1x50mm, Waters
Retention time: 2.775 min
Base peak: 171.0121
Precursor m/z: 171.0121
Precursor type: [M-H]-
m/z	relative intensity	assigned
79.9573	444	O3S-
107.0502	371	C7H7O-
171.0121	999	C7H7O3S-
