Mass spectrum: Triasulfuron; LC-ESI-QFT; MS2; CE: 120%; R=15000; [M+H]+
Name: Triasulfuron
Name: 1-[2-(2-chloroethoxy)phenyl]sulfonyl-3-(4-methoxy-6-methyl-1,3,5-triazin-2-yl)urea
Formula: C14H16ClN5O5S
Exact mass: 401.0560673
SMILES: CC1=NC(=NC(=N1)OC)NC(=O)NS(=O)(=O)C2=CC=CC=C2OCCCl
InChI: InChI=1S/C14H16ClN5O5S/c1-9-16-12(19-14(17-9)24-2)18-13(21)20-26(22,23)11-6-4-3-5-10(11)25-8-7-15/h3-6H,7-8H2,1-2H3,(H2,16,17,18,19,20,21)
Instrument: Exploris 240 Thermo Scientific
Instrument type: LC-ESI-QFT
Ms type: MS2
Ion mode: POSITIVE
Ionization: ESI
Fragmentation mode: HCD
Collision energy: 120 % (nominal)
Resolution: 15000
Column name: XBridge C18 3.5um, 2.1x50mm, Waters
Retention time: 5.566 min
Base peak: 402.063
Precursor m/z: 402.0633
Precursor type: [M+H]+
m/z	relative intensity	assigned
51.0229	91	C4H3+
56.0494	528	C3H6N+
57.0446	189	C2H5N2+
58.0287	492	C2H4NO+
62.9995	329	C2H4Cl+
63.0229	35	C5H3+
65.0385	999	C5H5+
68.0243	51	C2H2N3+
69.0082	451	C2HN2O+
75.0228	199	C6H3+
77.0385	113	C6H5+
81.0332	63	C5H5O+
83.0238	113	C3H3N2O+
91.0541	461	C7H7+
102.0462	37	C8H6+
105.0447	34	C6H5N2+
109.0103	125	C6H5S+
113.0058	38	C5H5OS+
137.0054	181	C7H5OS+
