Mass spectrum: Tolterodine; LC-ESI-QFT; MS2; CE: 45%; R=15000; [M+H]+
Name: Tolterodine
Name: 2-[(1R)-3-[di(propan-2-yl)amino]-1-phenylpropyl]-4-methylphenol
Formula: C22H31NO
Exact mass: 325.2405646
SMILES: CC(C)N(CC[C@H](C1=CC=CC=C1)C1=C(O)C=CC(C)=C1)C(C)C
InChI: InChI=1S/C22H31NO/c1-16(2)23(17(3)4)14-13-20(19-9-7-6-8-10-19)21-15-18(5)11-12-22(21)24/h6-12,15-17,20,24H,13-14H2,1-5H3/t20-/m1/s1
Instrument: Exploris 240 Thermo Scientific
Instrument type: LC-ESI-QFT
Ms type: MS2
Ion mode: POSITIVE
Ionization: ESI
Fragmentation mode: HCD
Collision energy: 45 % (nominal)
Resolution: 15000
Column name: XBridge C18 3.5um, 2.1x50mm, Waters
Retention time: 6.330 min
Base peak: 326.2476
Precursor m/z: 326.2478
Precursor type: [M+H]+
m/z	relative intensity	assigned
60.0808	102	C3H10N+
72.0807	513	C4H10N+
86.0962	16	C5H12N+
91.054	44	C7H7+
102.1277	101	C6H16N+
117.0699	114	C9H9+
119.0853	60	C9H11+
121.0647	496	C8H9O+
147.0804	666	C10H11O+
197.0961	419	C14H13O+
202.0776	280	C16H10+
284.2009	852	C19H26NO+
326.2479	999	C22H32NO+
