Mass spectrum: Naloxone; LC-ESI-QFT; MS2; CE: 30%; R=15000; [M+H]+
Name: Naloxone
Name: Normorphinone, N-allyl-dihydro-14-hydroxy-
Name: 4a,9-dihydroxy-3-prop-2-enyl-2,4,5,6,7a,13-hexahydro-1H-4,12-methanobenzofuro[3,2-e]isoquinolin-7-one
Formula: C19H21NO4
Exact mass: 327.1470582
SMILES: C=CCN1CCC23C4C(=O)CCC2(C1CC5=C3C(=C(C=C5)O)O4)O
InChI: InChI=1S/C19H21NO4/c1-2-8-20-9-7-18-15-11-3-4-12(21)16(15)24-17(18)13(22)5-6-19(18,23)14(20)10-11/h2-4,14,17,21,23H,1,5-10H2
Instrument: Exploris 240 Thermo Scientific
Instrument type: LC-ESI-QFT
Ms type: MS2
Ion mode: POSITIVE
Ionization: ESI
Fragmentation mode: HCD
Collision energy: 30 % (nominal)
Resolution: 15000
Column name: XBridge C18 3.5um, 2.1x50mm, Waters
Retention time: 2.211 min
Base peak: 328.1542
Precursor m/z: 328.1543
Precursor type: [M+H]+
m/z	relative intensity	assigned
253.1103	30	C16H15NO2+
268.1331	20	C17H18NO2+
310.1438	999	C19H20NO3+
328.1545	914	C19H22NO4+
