Mass spectrum: Triazophos; LC-ESI-QFT; MS2; CE: 90%; R=15000; [M+H]+
Name: Triazophos
Name: diethoxy-[(1-phenyl-1,2,4-triazol-3-yl)oxy]-sulfanylidene-lambda5-phosphane
Formula: C12H16N3O3PS
Exact mass: 313.064999
SMILES: CCOP(=S)(OCC)OC1=NN(C=N1)C2=CC=CC=C2
InChI: InChI=1S/C12H16N3O3PS/c1-3-16-19(20,17-4-2)18-12-13-10-15(14-12)11-8-6-5-7-9-11/h5-10H,3-4H2,1-2H3
Instrument: Exploris 240 Thermo Scientific
Instrument type: LC-ESI-QFT
Ms type: MS2
Ion mode: POSITIVE
Ionization: ESI
Fragmentation mode: HCD
Collision energy: 90 % (nominal)
Resolution: 15000
Column name: XBridge C18 3.5um, 2.1x50mm, Waters
Retention time: 9.744 min
Base peak: 314.072
Precursor m/z: 314.0723
Precursor type: [M+H]+
m/z	relative intensity	assigned
64.9787	33	H2O2P+
65.0385	147	C5H5+
77.0385	166	C6H5+
78.9401	35	OPS+
92.0494	578	C6H6N+
93.0573	69	C6H7N+
95.0491	100	C6H7O+
96.9507	550	H2O2PS+
104.0496	108	C7H6N+
105.0446	68	C6H5N2+
110.06	20	C6H8NO+
114.9612	469	H4O3PS+
119.0602	999	C7H7N2+
120.068	140	C7H8N2+
145.0395	83	C8H5N2O+
162.066	300	C8H8N3O+
