Mass spectrum: Selamectin; LC-ESI-QFT; MS2; CE: 30%; R=17500; [M+H]+
Name: Selamectin
Name: 6`-cyclohexyl-24-hydroxy-21-hydroxyimino-12-(5-hydroxy-4-methoxy-6-methyloxan-2-yl)oxy-5`,11,13,22-tetramethylspiro[3,7,19-trioxatetracyclo[15.6.1.14,8.020,24]pentacosa-10,14,16,22-tetraene-6,2`-oxane]-2-one
Formula: C43H63NO11
Exact mass: 769.440111836
SMILES: CC1CCC2(CC3CC(O2)CC=C(C(C(C=CC=C4COC5C4(C(C=C(C5=NO)C)C(=O)O3)O)C)OC6CC(C(C(O6)C)O)OC)C)OC1C7CCCCC7
InChI: InChI=1S/C43H63NO11/c1-24-11-10-14-30-23-50-40-36(44-48)27(4)19-33(43(30,40)47)41(46)52-32-20-31(16-15-25(2)38(24)53-35-21-34(49-6)37(45)28(5)51-35)54-42(22-32)18-17-26(3)39(55-42)29-12-8-7-9-13-29/h10-11,14-15,19,24,26,28-29,31-35,37-40,45,47-48H,7-9,12-13,16-18,20-23H2,1-6H3
Instrument: Exploris 240 Orbitrap Thermo Scientific
Instrument type: LC-ESI-QFT
Ms type: MS2
Ion mode: POSITIVE
Ionization: ESI
Fragmentation mode: HCD
Collision energy: 30 % (nominal)
Resolution: 17500
Column name: XBridge C18 3.5um, 2.1x50mm, Waters
Retention time: 17.448 min
Base peak: 111.0205
Precursor m/z: 770.4474
Precursor type: [M+H]+
m/z	relative intensity	assigned
81.0699	333	C6H9+
83.0493	14	C5H7O+
83.0855	29	C6H11+
85.0649	60	C5H9O+
87.0441	49	C4H7O2+
91.0545	40	C7H7+
93.0698	173	C7H9+
95.049	468	C6H7O+
95.0855	205	C7H11+
97.0648	32	C6H9O+
98.06	24	C5H8NO+
99.0442	40	C5H7O2+
99.0804	142	C6H11O+
101.0597	36	C5H9O2+
105.07	113	C8H9+
107.0854	128	C8H11+
109.0647	81	C7H9O+
109.1011	177	C8H13+
110.06	35	C6H8NO+
113.0596	999	C6H9O2+
119.0857	104	C9H11+
121.0646	76	C8H9O+
121.1011	152	C9H13+
123.0806	88	C8H11O+
123.1167	70	C9H15+
126.0548	24	C6H8NO2+
127.0753	184	C7H11O2+
131.0856	44	C10H11+
133.0645	94	C9H9O+
133.1009	129	C10H13+
135.0804	19	C9H11O+
135.1166	79	C10H15+
137.0959	123	C9H13O+
138.0549	64	C7H8NO2+
143.0855	31	C11H11+
145.0859	755	C7H13O3+
145.1006	79	C11H13+
147.1168	150	C11H15+
149.1325	43	C11H17+
151.0752	457	C9H11O2+
154.0502	33	C7H8NO3+
157.1013	41	C12H13+
159.1168	54	C12H15+
161.0964	43	C11H13O+
161.1323	340	C12H17+
171.1173	38	C13H15+
173.1321	40	C13H17+
175.1484	34	C13H19+
179.1425	125	C12H19O+
187.1484	98	C14H19+
189.1636	159	C14H21+
191.1067	49	C12H15O2+
193.1224	16	C12H17O2+
197.1541	40	C12H21O2+
199.1119	19	C14H15O+
199.1479	151	C15H19+
203.1793	497	C15H23+
212.1065	27	C14H14NO+
213.1644	47	C16H21+
214.1234	24	C14H16NO+
217.1582	153	H27NO11+
221.1902	94	C15H25O+
230.1181	56	C14H16NO2+
231.1748	51	C16H23O+
249.1855	54	C16H25O2+
258.1117	123	C15H16NO3+
274.1071	38	C15H16NO4+
276.123	449	C15H18NO4+
279.2115	51	C21H27+
294.1327	85	C15H20NO5+
297.2218	46	C21H29O+
333.2429	166	C21H33O3+
