Mass spectrum: Linuron; LC-ESI-QFT; MS2; CE: 90%; R=15000; [M+H]+
Name: Linuron
Name: 3-(3,4-dichlorophenyl)-1-methoxy-1-methylurea
Formula: C9H10Cl2N2O2
Exact mass: 248.0119329
SMILES: CON(C)C(=O)NC1=CC=C(Cl)C(Cl)=C1
InChI: InChI=1S/C9H10Cl2N2O2/c1-13(15-2)9(14)12-6-3-4-7(10)8(11)5-6/h3-5H,1-2H3,(H,12,14)
Instrument: Q Exactive Plus
Instrument type: LC-ESI-QFT
Ms type: MS2
Ion mode: POSITIVE
Ionization: ESI
Fragmentation mode: HCD
Collision energy: 90 % (nominal)
Resolution: 15000
Column name: XBridge C18 3.5um, 2.1x50mm, Waters
Retention time: 8.860 min
Base peak: 249.0193
Precursor m/z: 249.0192
Precursor type: [M+H]+
Precursor intensity: 425494460.33
m/z	relative intensity	assigned
58.0288	19	C2H4NO+
60.0444	31	C2H6NO+
63.0228	25	C5H3+
72.9839	91	C3H2Cl+
82.945	51	CHCl2+
90.0339	80	C6H4N+
96.9839	30	C5H2Cl+
97.9919	10	C5H3Cl+
98.9996	68	C5H4Cl+
106.945	29	C3HCl2+
118.0522	18	C7H6N2+
123.9948	66	C6H3ClN+
125.0027	523	C6H4ClN+
126.0106	73	C6H5ClN+
127.0181	14	C6H6ClN+
132.9606	999	C5H3Cl2+
133.9685	49	C5H4Cl2+
139.9901	11	C3H6Cl2N2+
142.0052	15	C6H5ClNO+
153.0214	355	C7H6ClN2+
159.9715	107	C6H4Cl2N+
160.9793	326	C6H5Cl2N+
163.0055	11	C8H4ClN2+
167.0007	10	C7H4ClN2O+
181.0163	84	C8H6ClN2O+
182.0241	31	C8H7ClN2O+
216.9926	11	C8H7Cl2N2O+
