Mass spectrum: Tolclofos-methyl; LC-ESI-QFT; MS2; CE: 45%; R=15000; [M+H]+
Name: Tolclofos-methyl
Name: (2,6-dichloro-4-methylphenoxy)-dimethoxy-sulfanylidene-lambda5-phosphane
Formula: C9H11Cl2O3PS
Exact mass: 299.9543572
SMILES: COP(=S)(OC)OC1=C(Cl)C=C(C)C=C1Cl
InChI: InChI=1S/C9H11Cl2O3PS/c1-6-4-7(10)9(8(11)5-6)14-15(16,12-2)13-3/h4-5H,1-3H3
Instrument: Q Exactive Plus
Instrument type: LC-ESI-QFT
Ms type: MS2
Ion mode: POSITIVE
Ionization: ESI
Fragmentation mode: HCD
Collision energy: 45 % (nominal)
Resolution: 15000
Column name: XBridge C18 3.5um, 2.1x50mm, Waters
Retention time: 12.151 min
Base peak: 300.9617
Precursor m/z: 300.9616
Precursor type: [M+H]+
Precursor intensity: 57974677.45
m/z	relative intensity	assigned
62.0185	25	C2H6S+
78.9943	163	CH4O2P+
96.9605	26	CH3ClOP+
124.9821	168	C2H6O2PS+
127.0155	153	C3H8ClO3+
141.0102	22	C7H6ClO+
142.9927	922	C2H8O3PS+
146.9764	43	C6H5Cl2+
174.9712	999	C7H5Cl2O+
190.9484	43	C7H5Cl2S+
236.9099	16	C7H4Cl2OPS+
253.912	175	C7H5Cl2O2PS+
268.9356	45	C8H8Cl2O2PS+
286.946	185	C8H10Cl2O3PS+
