Mass spectrum: 2-ClPFPECA-0-1; LC-ESI-QFT; MS2; CE: 15%; R=17500; [M-H]-
Name: 2-ClPFPECA-0-1
Name: Chloro-perfluoro methyl diether nonanoic acid
Name: 2-[1-(2-chloro-1,1,2,3,3,3-hexafluoropropoxy)-1,1,2,3,3,3-hexafluoropropan-2-yl]oxy-2,2-difluoroacetic acid
Formula: C8HClF14O4
Exact mass: 461.933981272
SMILES: C(=O)(C(OC(C(OC(C(C(F)(F)F)(F)Cl)(F)F)(F)F)(C(F)(F)F)F)(F)F)O
InChI: InChI=1S/C8HClF14O4/c9-3(12,5(14,15)16)7(20,21)27-8(22,23)4(13,6(17,18)19)26-2(10,11)1(24)25/h(H,24,25)
Instrument: Exploris 240 Orbitrap Thermo Scientific
Instrument type: LC-ESI-QFT
Ms type: MS2
Ion mode: NEGATIVE
Ionization: ESI
Fragmentation mode: HCD
Collision energy: 15 % (nominal)
Resolution: 17500
Column name: XBridge C18 3.5um, 2.1x50mm, Waters
Retention time: 10.396 min
Base peak: 366.9399
Precursor m/z: 460.9267
Precursor type: [M-H]-
m/z	relative intensity	assigned
184.9846	31	C3F7O-
200.9548	159	C3ClF6O-
366.9403	999	C6ClF12O2-
