Mass spectrum: Profenofos; LC-ESI-QFT; MS2; CE: 180%; R=15000; [M+H]+
Name: Profenofos
Name: 4-bromo-2-chloro-1-[ethoxy(propylsulfanyl)phosphoryl]oxybenzene
Formula: C11H15BrClO3PS
Exact mass: 371.9351418
SMILES: CCCSP(=O)(OCC)OC1=C(C=C(C=C1)Br)Cl
InChI: InChI=1S/C11H15BrClO3PS/c1-3-7-18-17(14,15-4-2)16-11-6-5-9(12)8-10(11)13/h5-6,8H,3-4,7H2,1-2H3
Instrument: Exploris 240 Thermo Scientific
Instrument type: LC-ESI-QFT
Ms type: MS2
Ion mode: POSITIVE
Ionization: ESI
Fragmentation mode: HCD
Collision energy: 180 % (nominal)
Resolution: 15000
Column name: XBridge C18 3.5um, 2.1x50mm, Waters
Retention time: 13.098 min
Base peak: 374.9398
Precursor m/z: 372.9424
Precursor type: [M+H]+
m/z	relative intensity	assigned
50.0152	89	C4H2+
51.023	144	C4H3+
52.0307	60	C4H4+
63.0229	999	C5H3+
64.0307	211	C5H4+
64.9787	517	H2O2P+
65.0386	341	C5H5+
68.9793	124	C3HS+
72.9839	118	C3H2Cl+
74.0151	369	C6H2+
75.0229	370	C6H3+
78.9403	172	OPS+
96.9506	50	H2O2PS+
100.0076	83	C5H5Cl+
106.9953	67	C6H3S+
109.0109	43	C6H5S+
116.9332	76	C3H2Br+
126.8946	60	CHBrCl+
