Mass spectrum: 2,2`-Dithiobis[N-methylbenzamide]; LC-ESI-QFT; MS2; CE: 120%; R=17500; [M+H]+
Name: 2,2`-Dithiobis[N-methylbenzamide]
Name: Benzamide, 2,2`-dithiobis[n-methyl-
Name: N-methyl-2-[[2-(methylcarbamoyl)phenyl]disulfanyl]benzamide
Formula: C16H16N2O2S2
Exact mass: 332.065319752
SMILES: CNC(=O)C1=CC=CC=C1SSC2=CC=CC=C2C(=O)NC
InChI: InChI=1S/C16H16N2O2S2/c1-17-15(19)11-7-3-5-9-13(11)21-22-14-10-6-4-8-12(14)16(20)18-2/h3-10H,1-2H3,(H,17,19)(H,18,20)
Instrument: Exploris 240 Orbitrap Thermo Scientific
Instrument type: LC-ESI-QFT
Ms type: MS2
Ion mode: POSITIVE
Ionization: ESI
Fragmentation mode: HCD
Collision energy: 120 % (nominal)
Resolution: 17500
Column name: XBridge C18 3.5um, 2.1x50mm, Waters
Retention time: 4.957 min
Base peak: 132.9582
Precursor m/z: 333.0726
Precursor type: [M+H]+
m/z	relative intensity	assigned
65.0385	421	C5H5+
68.9795	60	C3HS+
96.003	82	C5H4S+
108.0031	147	C6H4S+
109.0107	999	C6H5S+
137.0057	176	C7H5OS+
151.0086	282	C7H5NOS+
