Mass spectrum: Forbisen; LC-ESI-QTOF; MS2; CE: 30.3 eV; R=30000-60000; [M+H]+
Name: Forbisen
Name: 4-(1,5-dimethyl-3-oxo-2-phenylpyrazol-4-yl)-1,5-dimethyl-2-phenylpyrazol-3-one
Formula: C22H22N4O2
Exact mass: 374.1742759
SMILES: CC1=C(C(=O)N(N1C)C2=CC=CC=C2)C3=C(N(N(C3=O)C4=CC=CC=C4)C)C
InChI: InChI=1S/C22H22N4O2/c1-15-19(21(27)25(23(15)3)17-11-7-5-8-12-17)20-16(2)24(4)26(22(20)28)18-13-9-6-10-14-18/h5-14H,1-4H3
Instrument: maXis 4G (Bruker)
Instrument type: LC-ESI-QTOF
Ms type: MS2
Ion mode: POSITIVE
Ionization: ESI
Fragmentation mode: CID
Collision energy: 30.3 eV
Resolution: 30000-60000
Column name: ZORBAX Eclipse Plus C18, 2.1 x 150mm, 3.5um
Retention time: 0.156 min
Base peak: 375.1816
Precursor m/z: 375.1816
Precursor type: [M+H]+
m/z	relative intensity	assigned
110.0964	60	C7H12N+
118.0649	103	C8H8N+
135.0913	78	C8H11N2+
136.0756	553	C8H10NO+
137.1072	284	C8H13N2+
163.0865	267	C9H11N2O+
187.0865	72	C11H11N2O+
189.102	187	C11H13N2O+
197.1075	63	C13H13N2+
201.1019	129	C12H13N2O+
213.1021	78	C13H13N2O+
215.1178	112	C13H15N2O+
225.1021	135	C14H13N2O+
227.1179	83	C14H15N2O+
228.125	84	C14H16N2O+
229.1335	286	C14H17N2O+
241.1325	193	C15H17N2O+
255.1131	871	C15H15N2O2+
256.1448	754	C15H18N3O+
320.1398	88	C19H18N3O2+
360.1589	68	C21H20N4O2+
375.1831	999	C22H23N4O2+
