Mass spectrum: Formanilide; LC-ESI-QTOF; MS2; CE: 20.8 eV; R=30000-60000; [M+H]+
Name: Formanilide
Name: N-phenylformamide
Formula: C7H7NO
Exact mass: 121.0527638
SMILES: C1=CC=C(C=C1)NC=O
InChI: InChI=1S/C7H7NO/c9-6-8-7-4-2-1-3-5-7/h1-6H,(H,8,9)
Instrument: maXis 4G (Bruker)
Instrument type: LC-ESI-QTOF
Ms type: MS2
Ion mode: POSITIVE
Ionization: ESI
Fragmentation mode: CID
Collision energy: 20.8 eV
Resolution: 30000-60000
Column name: ZORBAX Eclipse Plus C18, 2.1 x 150mm, 3.5um
Retention time: 0.132 min
Base peak: 122.06
Precursor m/z: 122.06
Precursor type: [M+H]+
m/z	relative intensity	assigned
77.0378	278	C6H5+
93.0569	134	C6H7N+
94.0648	999	C6H8N+
95.0487	164	C6H7O+
104.0495	150	C7H6N+
122.0603	449	C7H8NO+
