Mass spectrum: n-ethyl-3-hydroxybenzamide; LC-ESI-QTOF; MS2; CE: 22.5 eV; R=30000-60000; [M+H]+
Name: n-ethyl-3-hydroxybenzamide
Formula: C9H11NO2
Exact mass: 165.0789786
SMILES: CCNC(=O)C1=CC(=CC=C1)O
InChI: InChI=1S/C9H11NO2/c1-2-10-9(12)7-4-3-5-8(11)6-7/h3-6,11H,2H2,1H3,(H,10,12)
Instrument: maXis 4G (Bruker)
Instrument type: LC-ESI-QTOF
Ms type: MS2
Ion mode: POSITIVE
Ionization: ESI
Fragmentation mode: CID
Collision energy: 22.5 eV
Resolution: 30000-60000
Column name: ZORBAX Eclipse Plus C18, 2.1 x 150mm, 3.5um
Retention time: 0.121 min
Base peak: 166.0863
Precursor m/z: 166.0863
Precursor type: [M+H]+
m/z	relative intensity	assigned
93.0329	115	C6H5O+
95.0487	100	C6H7O+
121.0283	999	C7H5O2+
166.086	201	C9H12NO2+
