Mass spectrum: Sulfanilic acid; LC-ESI-QTOF; MS2; CE: 22.8 eV; R=30000-60000; [M+H]+
Name: Sulfanilic acid
Name: 4-aminobenzenesulfonic acid
Formula: C6H7NO3S
Exact mass: 173.0146641
SMILES: Nc1ccc(cc1)S(O)(=O)=O
InChI: InChI=1S/C6H7NO3S/c7-5-1-3-6(4-2-5)11(8,9)10/h1-4H,7H2,(H,8,9,10)
Instrument: maXis 4G (Bruker)
Instrument type: LC-ESI-QTOF
Ms type: MS2
Ion mode: POSITIVE
Ionization: ESI
Fragmentation mode: CID
Collision energy: 22.8 eV
Resolution: 30000-60000
Column name: ZORBAX Eclipse Plus C18, 2.1 x 150mm, 3.5um
Retention time: 0.047 min
Base peak: 174.0219
Precursor m/z: 174.0219
Precursor type: [M+H]+
m/z	relative intensity	assigned
92.0491	181	C6H6N+
93.0569	999	C6H7N+
108.0443	128	C6H6NO+
174.0219	675	C6H8NO3S+
