Mass spectrum: n-phenylpropanamide; LC-ESI-QTOF; MS2; CE: 21.9 eV; R=30000-60000; [M+H]+
Name: n-phenylpropanamide
Formula: C9H11NO
Exact mass: 149.084064
SMILES: CCC(=O)NC1=CC=CC=C1
InChI: InChI=1S/C9H11NO/c1-2-9(11)10-8-6-4-3-5-7-8/h3-7H,2H2,1H3,(H,10,11)
Instrument: maXis 4G (Bruker)
Instrument type: LC-ESI-QTOF
Ms type: MS2
Ion mode: POSITIVE
Ionization: ESI
Fragmentation mode: CID
Collision energy: 21.9 eV
Resolution: 30000-60000
Column name: ZORBAX Eclipse Plus C18, 2.1 x 150mm, 3.5um
Retention time: 0.148 min
Base peak: 150.0913
Precursor m/z: 150.0913
Precursor type: [M+H]+
m/z	relative intensity	assigned
94.0647	999	C6H8N+
150.0911	95	C9H12NO+
