Mass spectrum: Aniline; LC-ESI-QTOF; MS2; CE: 20 eV; R=30000-60000; [M+H]+
Name: Aniline
Formula: C6H7N
Exact mass: 93.05784922
SMILES: Nc1ccccc1
InChI: InChI=1S/C6H7N/c7-6-4-2-1-3-5-6/h1-5H,7H2
Instrument: maXis 4G (Bruker)
Instrument type: LC-ESI-QTOF
Ms type: MS2
Ion mode: POSITIVE
Ionization: ESI
Fragmentation mode: CID
Collision energy: 20 eV
Resolution: 30000-60000
Column name: ZORBAX Eclipse Plus C18, 2.1 x 150mm, 3.5um
Retention time: 0.065 min
Base peak: 94.0651
Precursor m/z: 94.0651
Precursor type: [M+H]+
m/z	relative intensity	assigned
77.038	518	C6H5+
93.0571	82	C6H7N+
94.0649	999	C6H8N+
