Mass spectrum: 1-amino-3-[4-(2-methoxyethyl)phenoxy]propan-2-ol; LC-ESI-QTOF; MS2; CE: 24.7 eV; R=30000-60000; [M+H]+
Name: 1-amino-3-[4-(2-methoxyethyl)phenoxy]propan-2-ol
Formula: C12H19NO3
Exact mass: 225.1364935
SMILES: NCC(COC1=CC=C(C=C1)CCOC)O
InChI: InChI=1S/C12H19NO3/c1-15-7-6-10-2-4-12(5-3-10)16-9-11(14)8-13/h2-5,11,14H,6-9,13H2,1H3
Instrument: maXis 4G (Bruker)
Instrument type: LC-ESI-QTOF
Ms type: MS2
Ion mode: POSITIVE
Ionization: ESI
Fragmentation mode: CID
Collision energy: 24.7 eV
Resolution: 30000-60000
Column name: ZORBAX Eclipse Plus C18, 2.1 x 150mm, 3.5um
Retention time: 0.102 min
Base peak: 226.1438
Precursor m/z: 226.1438
Precursor type: [M+H]+
m/z	relative intensity	assigned
91.0535	87	C7H7+
93.0694	55	C7H9+
103.054	91	C8H7+
105.0695	165	C8H9+
121.0646	999	C8H9O+
131.0851	148	C10H11+
133.0645	859	C9H9O+
144.0564	50	C10H8O+
147.08	109	C10H11O+
148.0754	211	C9H10NO+
159.0802	439	C11H11O+
165.0906	144	C10H13O2+
176.1066	82	C11H14NO+
177.0904	73	C11H13O2+
179.1067	50	C11H15O2+
191.1062	143	C12H15O2+
226.1434	40	C12H20NO3+
