Mass spectrum: p-aminophenol; LC-ESI-QTOF; MS2; CE: 20.4 eV; R=30000-60000; [M+H]+
Name: p-aminophenol
Name: 4-aminophenol
Formula: C6H7NO
Exact mass: 109.0527638
SMILES: C1(=CC=C(C=C1)N)O
InChI: InChI=1S/C6H7NO/c7-5-1-3-6(8)4-2-5/h1-4,8H,7H2
Instrument: maXis 4G (Bruker)
Instrument type: LC-ESI-QTOF
Ms type: MS2
Ion mode: POSITIVE
Ionization: ESI
Fragmentation mode: CID
Collision energy: 20.4 eV
Resolution: 30000-60000
Column name: ZORBAX Eclipse Plus C18, 2.1 x 150mm, 3.5um
Retention time: 0.032 min
Base peak: 110.06
Precursor m/z: 110.06
Precursor type: [M+H]+
m/z	relative intensity	assigned
80.0489	59	C5H6N+
82.0646	52	C5H8N+
92.0491	318	C6H6N+
93.0332	619	C6H5O+
93.0564	117	C6H7N+
108.0442	52	C6H6NO+
109.0521	332	C6H7NO+
110.0601	999	C6H8NO+
