Mass spectrum: 3-amino-5-methylisoxazole; LC-ESI-QTOF; MS2; CE: 20 eV; R=30000-60000; [M+H]+
Name: 3-amino-5-methylisoxazole
Name: 5-methyl-1,2-oxazol-3-amine
Formula: C4H6N2O
Exact mass: 98.04801281
SMILES: Cc1cc(N)no1
InChI: InChI=1S/C4H6N2O/c1-3-2-4(5)6-7-3/h2H,1H3,(H2,5,6)
Instrument: maXis 4G (Bruker)
Instrument type: LC-ESI-QTOF
Ms type: MS2
Ion mode: POSITIVE
Ionization: ESI
Fragmentation mode: CID
Collision energy: 20 eV
Resolution: 30000-60000
Column name: ZORBAX Eclipse Plus C18, 2.1 x 150mm, 3.5um
Retention time: 0.079 min
Base peak: 99.0553
Precursor m/z: 99.0553
Precursor type: [M+H]+
m/z	relative intensity	assigned
99.0549	999	C4H7N2O+
