Mass spectrum: Oxasulfuron; LC-ESI-QFT; MS2; CE: 60%; R=15000; [M+H]+
Name: Oxasulfuron
Name: oxetan-3-yl 2-[(4,6-dimethylpyrimidin-2-yl)carbamoylsulfamoyl]benzoate
Formula: C17H18N4O6S
Exact mass: 406.0947053
SMILES: CC1=CC(=NC(=N1)NC(=O)NS(=O)(=O)C2=CC=CC=C2C(=O)OC3COC3)C
InChI: InChI=1S/C17H18N4O6S/c1-10-7-11(2)19-16(18-10)20-17(23)21-28(24,25)14-6-4-3-5-13(14)15(22)27-12-8-26-9-12/h3-7,12H,8-9H2,1-2H3,(H2,18,19,20,21,23)
Instrument: Exploris 240 Thermo Scientific
Instrument type: LC-ESI-QFT
Ms type: MS2
Ion mode: POSITIVE
Ionization: ESI
Fragmentation mode: HCD
Collision energy: 60 % (nominal)
Resolution: 15000
Column name: XBridge C18 3.5um, 2.1x50mm, Waters
Retention time: 5.484 min
Base peak: 407.1023
Precursor m/z: 407.102
Precursor type: [M+H]+
m/z	relative intensity	assigned
57.0335	60	C3H5O+
66.0339	10	C4H4N+
90.0339	52	C6H4N+
107.0605	58	C6H7N2+
120.0205	21	C7H4O2+
120.0442	14	C7H6NO+
121.0286	82	C7H5O2+
124.087	122	C6H10N3+
125.071	229	C6H9N2O+
130.0399	12	C7H4N3+
146.0237	73	C8H4NO2+
150.0662	999	C7H8N3O+
184.9905	33	C7H5O4S+
209.9857	61	C8H4NO4S+
