Mass spectrum: Profenofos; LC-ESI-QFT; MS2; CE: 75%; R=15000; [M+H]+
Name: Profenofos
Name: 4-bromo-2-chloro-1-[ethoxy(propylsulfanyl)phosphoryl]oxybenzene
Formula: C11H15BrClO3PS
Exact mass: 371.9351418
SMILES: CCCSP(=O)(OCC)OC1=C(C=C(C=C1)Br)Cl
InChI: InChI=1S/C11H15BrClO3PS/c1-3-7-18-17(14,15-4-2)16-11-6-5-9(12)8-10(11)13/h5-6,8H,3-4,7H2,1-2H3
Instrument: Exploris 240 Thermo Scientific
Instrument type: LC-ESI-QFT
Ms type: MS2
Ion mode: POSITIVE
Ionization: ESI
Fragmentation mode: HCD
Collision energy: 75 % (nominal)
Resolution: 15000
Column name: XBridge C18 3.5um, 2.1x50mm, Waters
Retention time: 13.098 min
Base peak: 374.9398
Precursor m/z: 372.9424
Precursor type: [M+H]+
m/z	relative intensity	assigned
62.9453	23	PS+
64.9788	22	H2O2P+
78.94	18	OPS+
96.9507	419	H2O2PS+
114.9612	417	H4O3PS+
128.0022	999	C5H5O2P+
143.9793	679	C5H5OPS+
158.9441	190	C5H4BrO+
174.9207	18	C5H4BrS+
186.9387	332	C6H4BrO2+
187.9692	91	C6H5O3PS+
202.9163	32	C6H4BrOS+
204.9046	117	C5H3BrO2P+
205.9356	60	C6H4ClO2PS+
220.882	205	C5H3BrOPS+
