Mass spectrum: N-MeFOSA; LC-ESI-QFT; MS2; CE: 45%; R=17500; [M-H]-
Name: N-MeFOSA
Name: Heptadecafluoro-N-methyloctanesulphonamide
Name: 1,1,2,2,3,3,4,4,5,5,6,6,7,7,8,8,8-heptadecafluoro-N-methyloctane-1-sulfonamide
Formula: C9H4F17NO2S
Exact mass: 512.969129108
SMILES: CNS(=O)(=O)C(C(C(C(C(C(C(C(F)(F)F)(F)F)(F)F)(F)F)(F)F)(F)F)(F)F)(F)F
InChI: InChI=1S/C9H4F17NO2S/c1-27-30(28,29)9(25,26)7(20,21)5(16,17)3(12,13)2(10,11)4(14,15)6(18,19)8(22,23)24/h27H,1H3
Instrument: Exploris 240 Orbitrap Thermo Scientific
Instrument type: LC-ESI-QFT
Ms type: MS2
Ion mode: NEGATIVE
Ionization: ESI
Fragmentation mode: HCD
Collision energy: 45 % (nominal)
Resolution: 17500
Column name: XBridge C18 3.5um, 2.1x50mm, Waters
Retention time: 14.446 min
Base peak: 601.9938
Precursor m/z: 511.9619
Precursor type: [M-H]-
m/z	relative intensity	assigned
63.9626	83	O2S-
64.9703	673	HO2S-
82.9607	174	FO2S-
111.9872	203	CH3FNO2S-
118.9927	351	C2F5-
168.9894	999	C3F7-
218.9853	163	C4F9-
