Mass spectrum: Metolachlor; LC-ESI-QFT; MS2; CE: 45%; R=15000; [M+H]+
Name: Metolachlor
Name: 2-chloro-N-(2-ethyl-6-methylphenyl)-N-(1-methoxypropan-2-yl)acetamide
Formula: C15H22ClNO2
Exact mass: 283.1339066
SMILES: CCC1=C(N(C(C)COC)C(=O)CCl)C(C)=CC=C1
InChI: InChI=1S/C15H22ClNO2/c1-5-13-8-6-7-11(2)15(13)17(14(18)9-16)12(3)10-19-4/h6-8,12H,5,9-10H2,1-4H3
Instrument: Q Exactive Plus
Instrument type: LC-ESI-QFT
Ms type: MS2
Ion mode: POSITIVE
Ionization: ESI
Fragmentation mode: HCD
Collision energy: 45 % (nominal)
Resolution: 15000
Column name: XBridge C18 3.5um, 2.1x50mm, Waters
Retention time: 10.500 min
Base peak: 284.1412
Precursor m/z: 284.1412
Precursor type: [M+H]+
Precursor intensity: 759501235.91
m/z	relative intensity	assigned
73.0648	64	C4H9O+
76.9788	19	C2H2ClO+
119.0855	10	C9H11+
134.0964	58	C9H12N+
146.0964	35	C10H12N+
148.112	10	C10H14N+
158.0965	22	C11H12N+
160.1121	33	C11H14N+
176.1433	765	C12H18N+
184.0525	27	C9H11ClNO+
194.0729	22	C11H13ClN+
212.0837	38	C11H15ClNO+
252.1149	999	C14H19ClNO+
