Mass spectrum: 3-Hydroxymethylmefenamic acid; LC-ESI-QFT; MS2; CE: 60%; R=17500; [M+H]+
Name: 3-Hydroxymethylmefenamic acid
Name: 3-Hydroxymethyl Mefenamic Acid
Name: 2-[3-(hydroxymethyl)-2-methylanilino]benzoic acid
Formula: C15H15NO3
Exact mass: 257.1051933
SMILES: CC1=C(C=CC=C1NC2=CC=CC=C2C(=O)O)CO
InChI: InChI=1S/C15H15NO3/c1-10-11(9-17)5-4-8-13(10)16-14-7-3-2-6-12(14)15(18)19/h2-8,16-17H,9H2,1H3,(H,18,19)
Instrument: Exploris 240 Orbitrap Thermo Scientific
Instrument type: LC-ESI-QFT
Ms type: MS2
Ion mode: POSITIVE
Ionization: ESI
Fragmentation mode: HCD
Collision energy: 60 % (nominal)
Resolution: 17500
Column name: XBridge C18 3.5um, 2.1x50mm, Waters
Retention time: 8.513 min
Base peak: 258.1122
Precursor m/z: 258.1125
Precursor type: [M+H]+
m/z	relative intensity	assigned
91.0538	13	C7H7+
105.033	17	C7H5O+
168.08	13	C12H10N+
179.0727	175	C13H9N+
180.0805	92	C13H10N+
181.0885	43	C13H11N+
192.0802	7	C14H10N+
193.088	64	C14H11N+
194.0962	558	C14H12N+
195.0678	84	C13H9NO+
196.0754	22	C13H10NO+
196.1114	20	C14H14N+
204.0808	75	C15H10N+
207.0678	150	C14H9NO+
209.0828	31	C14H11NO+
210.0911	899	C14H12NO+
220.0758	17	C15H10NO+
221.084	20	C15H11NO+
222.0912	999	C15H12NO+
240.1017	86	C15H14NO2+
