Mass spectrum: Telmisartan O-acyl-glucuronide; LC-ESI-QFT; MS2; CE: 15%; R=17500; [M-H]-
Name: Telmisartan O-acyl-glucuronide
Name: 3,4,5-trihydroxy-6-[2-[4-[[4-methyl-6-(1-methylbenzimidazol-2-yl)-2-propylbenzimidazol-1-yl]methyl]phenyl]benzoyl]oxyoxane-2-carboxylic acid
Formula: C39H38N4O8
Exact mass: 690.2689642
SMILES: CCCC1=NC2=C(N1CC3=CC=C(C=C3)C4=CC=CC=C4C(=O)OC5C(C(C(C(O5)C(=O)O)O)O)O)C=C(C=C2C)C6=NC7=CC=CC=C7N6C
InChI: InChI=1S/C39H38N4O8/c1-4-9-30-41-31-21(2)18-24(36-40-27-12-7-8-13-28(27)42(36)3)19-29(31)43(30)20-22-14-16-23(17-15-22)25-10-5-6-11-26(25)38(49)51-39-34(46)32(44)33(45)35(50-39)37(47)48/h5-8,10-19,32-35,39,44-46H,4,9,20H2,1-3H3,(H,47,48)
Instrument: Exploris 240 Orbitrap Thermo Scientific
Instrument type: LC-ESI-QFT
Ms type: MS2
Ion mode: NEGATIVE
Ionization: ESI
Fragmentation mode: HCD
Collision energy: 15 % (nominal)
Resolution: 17500
Column name: XBridge C18 3.5um, 2.1x50mm, Waters
Retention time: 6.932 min
Base peak: 689.2621
Precursor m/z: 689.2617
Precursor type: [M-H]-
m/z	relative intensity	assigned
75.0089	5	C2H3O3-
85.0295	23	C4H5O2-
95.014	10	C5H3O2-
99.0088	10	C4H3O3-
103.0037	26	C3H3O4-
113.0245	293	C5H5O3-
117.0196	4	C4H5O4-
129.0194	4	C5H5O4-
157.0138	9	C6H5O5-
175.0248	382	C6H7O6-
469.239	11	C31H33O4-
513.2299	999	C33H29N4O2-
514.2334	22	C27H34N2O8-
