Mass spectrum: 6-O-Desmethyl-mycophenolic acid; LC-ESI-QFT; MS2; CE: 90%; R=17500; [M+H]+
Name: 6-O-Desmethyl-mycophenolic acid
Name: 6-(4,6-dihydroxy-7-methyl-3-oxo-1H-2-benzofuran-5-yl)-4-methylhex-4-enoic acid
Formula: C16H18O6
Exact mass: 306.1103383
SMILES: CC1=C2COC(=O)C2=C(C(=C1O)CC=C(C)CCC(=O)O)O
InChI: InChI=1S/C16H18O6/c1-8(4-6-12(17)18)3-5-10-14(19)9(2)11-7-22-16(21)13(11)15(10)20/h3,19-20H,4-7H2,1-2H3,(H,17,18)
Instrument: Exploris 240 Orbitrap Thermo Scientific
Instrument type: LC-ESI-QFT
Ms type: MS2
Ion mode: POSITIVE
Ionization: ESI
Fragmentation mode: HCD
Collision energy: 90 % (nominal)
Resolution: 17500
Column name: XBridge C18 3.5um, 2.1x50mm, Waters
Retention time: 6.296 min
Base peak: 307.1173
Precursor m/z: 307.1176
Precursor type: [M+H]+
m/z	relative intensity	assigned
53.0385	13	C4H5+
55.018	48	C3H3O+
55.0541	14	C4H7+
65.0387	20	C5H5+
67.0542	22	C5H7+
69.0698	13	C5H9+
77.0384	34	C6H5+
79.0542	126	C6H7+
80.0619	10	C6H8+
81.0698	111	C6H9+
83.0127	37	C4H3O2+
91.0542	158	C7H7+
94.0414	10	C6H6O+
95.0488	44	C6H7O+
97.0646	32	C6H9O+
105.07	11	C8H9+
107.049	43	C7H7O+
108.0569	17	C7H8O+
109.0281	9	C6H5O2+
109.0647	140	C7H9O+
119.0491	63	C8H7O+
121.0649	15	C8H9O+
123.044	28	C7H7O2+
135.0438	50	C8H7O2+
136.0519	376	C8H8O2+
137.0597	125	C8H9O2+
145.0284	10	C9H5O2+
147.0439	30	C9H7O2+
151.0384	24	C8H7O3+
161.0593	22	C10H9O2+
163.0389	483	C9H7O3+
164.0471	106	C9H8O3+
165.0546	999	C9H9O3+
175.0396	19	C10H7O3+
178.0261	21	C9H6O4+
181.0494	67	C9H9O4+
193.0496	756	C10H9O4+
