Mass spectrum: Pyraflufen-ethyl; LC-ESI-QFT; MS2; CE: 60%; R=15000; [M+H]+
Name: Pyraflufen-ethyl
Name: ethyl 2-[2-chloro-5-[4-chloro-5-(difluoromethoxy)-1-methylpyrazol-3-yl]-4-fluorophenoxy]acetate
Formula: C15H13Cl2F3N2O4
Exact mass: 412.0204469
SMILES: CCOC(=O)COC1=C(C=C(C(=C1)C2=NN(C(=C2Cl)OC(F)F)C)F)Cl
InChI: InChI=1S/C15H13Cl2F3N2O4/c1-3-24-11(23)6-25-10-4-7(9(18)5-8(10)16)13-12(17)14(22(2)21-13)26-15(19)20/h4-5,15H,3,6H2,1-2H3
Instrument: Exploris 240 Thermo Scientific
Instrument type: LC-ESI-QFT
Ms type: MS2
Ion mode: POSITIVE
Ionization: ESI
Fragmentation mode: HCD
Collision energy: 60 % (nominal)
Resolution: 15000
Column name: XBridge C18 3.5um, 2.1x50mm, Waters
Retention time: 11.460 min
Base peak: 413.0276
Precursor m/z: 413.0277
Precursor type: [M+H]+
m/z	relative intensity	assigned
156.0009	22	C7H4ClFN+
169.0089	23	C8H5ClFN+
177.0215	59	C9H6ClN2+
190.0535	142	C10H7FN2O+
195.9961	29	C9H4ClFNO+
197.0037	41	C9H5ClFNO+
197.0276	137	C9H7ClFN2+
201.9613	67	C8H3Cl2FN+
218.0488	20	C11H7FN2O2+
219.0567	21	C11H8FN2O2+
223.9905	207	C13HFO3+
225.0223	196	C10H7ClFN2O+
226.0302	194	C10H8ClFN2O+
240.9924	28	C13H4ClNO2+
241.0187	16	C7H8ClF2N2O3+
247.9912	75	C9H7Cl2FN2O+
253.0173	999	C11H7ClFN2O2+
254.025	484	C11H8ClFN2O2+
260.999	844	C10H8Cl2FN2O+
268.9877	74	C11H5ClFNO4+
275.9863	457	C10H7Cl2FN2O2+
288.994	527	C11H8Cl2FN2O2+
304.022	131	C12H8ClF3N2O2+
325.9841	32	C11H7Cl2F3N2O2+
