Mass spectrum: 3-Hydroxymethylmefenamic acid; LC-ESI-QFT; MS2; CE: 120%; R=17500; [M+H]+
Name: 3-Hydroxymethylmefenamic acid
Name: 3-Hydroxymethyl Mefenamic Acid
Name: 2-[3-(hydroxymethyl)-2-methylanilino]benzoic acid
Formula: C15H15NO3
Exact mass: 257.1051933
SMILES: CC1=C(C=CC=C1NC2=CC=CC=C2C(=O)O)CO
InChI: InChI=1S/C15H15NO3/c1-10-11(9-17)5-4-8-13(10)16-14-7-3-2-6-12(14)15(18)19/h2-8,16-17H,9H2,1H3,(H,18,19)
Instrument: Exploris 240 Orbitrap Thermo Scientific
Instrument type: LC-ESI-QFT
Ms type: MS2
Ion mode: POSITIVE
Ionization: ESI
Fragmentation mode: HCD
Collision energy: 120 % (nominal)
Resolution: 17500
Column name: XBridge C18 3.5um, 2.1x50mm, Waters
Retention time: 8.513 min
Base peak: 258.1122
Precursor m/z: 258.1125
Precursor type: [M+H]+
m/z	relative intensity	assigned
51.0229	16	C4H3+
65.0387	36	C5H5+
77.0382	70	C6H5+
89.0386	20	C7H5+
91.0541	61	C7H7+
92.0256	48	C6H4O+
95.0493	16	C6H7O+
115.0543	41	C9H7+
116.0498	17	C8H6N+
128.0495	20	C9H6N+
139.0541	95	C11H7+
140.0495	39	C10H6N+
140.0622	36	C11H8+
151.0543	36	C12H7+
152.0619	155	C12H8+
153.0573	23	C11H7N+
154.0651	56	C11H8N+
165.0703	117	C13H9+
166.0647	264	C12H8N+
167.0728	999	C12H9N+
177.0577	15	C13H7N+
178.0649	258	C13H8N+
179.0732	322	C13H9N+
180.0806	396	C13H10N+
181.0855	24	C10H13O3+
183.0678	16	C12H9NO+
191.0728	117	C14H9N+
192.0806	257	C14H10N+
193.0888	178	C14H11N+
194.0958	78	C14H12N+
195.0678	299	C13H9NO+
196.0759	43	C13H10NO+
204.0812	39	C15H10N+
207.0679	21	C14H9NO+
208.0756	89	C14H10NO+
210.0913	28	C14H12NO+
220.0756	63	C15H10NO+
