Mass spectrum: N-Cyclohexyl-2-benzothiazolesulfenamide; LC-ESI-QFT; MS2; CE: 90%; R=15000; [M+H]+
Name: N-Cyclohexyl-2-benzothiazolesulfenamide
Name: N-(1,3-benzothiazol-2-ylsulfanyl)cyclohexanamine
Formula: C13H16N2S2
Exact mass: 264.0754905
SMILES: C1CCC(CC1)NSC2=NC3=CC=CC=C3S2
InChI: InChI=1S/C13H16N2S2/c1-2-6-10(7-3-1)15-17-13-14-11-8-4-5-9-12(11)16-13/h4-5,8-10,15H,1-3,6-7H2
Instrument: Exploris 240 Thermo Scientific
Instrument type: LC-ESI-QFT
Ms type: MS2
Ion mode: POSITIVE
Ionization: ESI
Fragmentation mode: HCD
Collision energy: 90 % (nominal)
Resolution: 15000
Column name: XBridge C18 3.5um, 2.1x50mm, Waters
Retention time: 13.202 min
Base peak: 265.0826
Precursor m/z: 265.0828
Precursor type: [M+H]+
m/z	relative intensity	assigned
53.0386	24	C4H5+
55.0542	999	C4H7+
56.0495	40	C3H6N+
83.0855	93	C6H11+
108.0027	212	C6H4S+
122.0059	200	C6H4NS+
138.9671	50	C6H3S2+
165.9779	762	C7H4NS2+
