Mass spectrum: 4-Chloro-2-methylphenol; LC-ESI-QFT; MS2; CE: 75%; R=15000; [M-H]-
Name: 4-Chloro-2-methylphenol
Formula: C7H7ClO
Exact mass: 142.0185425
SMILES: CC1=C(C=CC(=C1)Cl)O
InChI: InChI=1S/C7H7ClO/c1-5-4-6(8)2-3-7(5)9/h2-4,9H,1H3
Instrument: Exploris 240 Thermo Scientific
Instrument type: LC-ESI-QFT
Ms type: MS2
Ion mode: NEGATIVE
Ionization: ESI
Fragmentation mode: HCD
Collision energy: 75 % (nominal)
Resolution: 15000
Column name: XBridge C18 3.5um, 2.1x50mm, Waters
Retention time: 7.843 min
Base peak: 141.011
Precursor m/z: 141.0113
Precursor type: [M-H]-
m/z	relative intensity	assigned
105.0343	90	C7H5O-
141.011	999	C7H6ClO-
