Mass spectrum: Acyclovir; LC-ESI-QFT; MS2; CE: 60%; R=17500; [M-H]-
Name: Acyclovir
Name: 2-amino-9-(2-hydroxyethoxymethyl)-3H-purin-6-one
Formula: C8H11N5O3
Exact mass: 225.0861892
SMILES: C1=NC2=C(N1COCCO)N=C(NC2=O)N
InChI: InChI=1S/C8H11N5O3/c9-8-11-6-5(7(15)12-8)10-3-13(6)4-16-2-1-14/h3,14H,1-2,4H2,(H3,9,11,12,15)
Instrument: Exploris 240 Orbitrap Thermo Scientific
Instrument type: LC-ESI-QFT
Ms type: MS2
Ion mode: NEGATIVE
Ionization: ESI
Fragmentation mode: HCD
Collision energy: 60 % (nominal)
Resolution: 17500
Column name: XBridge C18 3.5um, 2.1x50mm, Waters
Retention time: 1.167 min
Base peak: 224.0788
Precursor m/z: 224.0789
Precursor type: [M-H]-
m/z	relative intensity	assigned
59.0141	19	C2H3O2-
65.0144	137	C3HN2-
65.9984	64	C3NO-
66.0098	199	C2N3-
67.0302	96	C3H3N2-
82.041	28	C3H4N3-
92.0254	999	C4H2N3-
94.0413	34	C4H4N3-
106.0285	280	C4H2N4-
107.0364	117	C4H3N4-
108.0203	265	C4H2N3O-
119.0363	769	C5H3N4-
120.0203	470	C5H2N3O-
124.0394	22	C4H4N4O-
125.0466	71	C4H5N4O-
126.0309	21	C4H4N3O2-
133.0156	498	C5HN4O-
135.0312	204	C5H3N4O-
144.0315	26	C6H2N5-
149.0343	489	C5H3N5O-
150.0422	974	C5H4N5O-
162.0421	449	C6H4N5O-
181.0732	30	C7H9N4O2-
182.057	165	C7H8N3O3-
224.0789	315	C8H10N5O3-
