Mass spectrum: Boscalid; LC-ESI-QFT; MS2; CE: 60%; R=15000; [M+H]+
Name: Boscalid
Name: 2-chloro-N-[2-(4-chlorophenyl)phenyl]pyridine-3-carboxamide
Formula: C18H12Cl2N2O
Exact mass: 342.0326684
SMILES: ClC1=CC=C(C=C1)C1=C(NC(=O)C2=C(Cl)N=CC=C2)C=CC=C1
InChI: InChI=1S/C18H12Cl2N2O/c19-13-9-7-12(8-10-13)14-4-1-2-6-16(14)22-18(23)15-5-3-11-21-17(15)20/h1-11H,(H,22,23)
Instrument: Q Exactive Plus
Instrument type: LC-ESI-QFT
Ms type: MS2
Ion mode: POSITIVE
Ionization: ESI
Fragmentation mode: HCD
Collision energy: 60 % (nominal)
Resolution: 15000
Column name: XBridge C18 3.5um, 2.1x50mm, Waters
Retention time: 9.173 min
Base peak: 343.0403
Precursor m/z: 343.0399
Precursor type: [M+H]+
Precursor intensity: 188620855.64
m/z	relative intensity	assigned
51.0229	12	C4H3+
76.0181	19	C5H2N+
78.0339	66	C5H4N+
96.0444	279	C5H6NO+
111.9948	68	C5H3ClN+
112.0393	261	C2H9ClN2O+
114.0105	54	C5H5ClN+
130.0054	93	C5H5ClNO+
139.9898	370	C6H3ClNO+
152.062	20	C12H8+
216.0811	11	C16H10N+
217.0887	10	C16H11N+
227.0729	23	C17H9N+
228.0804	21	C17H10N+
230.0369	12	C13H9ClNO+
238.0418	15	C15H9ClN+
242.0841	35	C17H10N2+
243.0916	136	C17H11N2+
244.0992	60	C17H12N2+
253.076	93	C18H9N2+
254.084	131	C18H10N2+
262.0425	13	C17H9ClN+
264.0588	18	C17H11ClN+
270.0789	33	C18H10N2O+
271.0865	999	C18H11N2O+
272.0943	959	C18H12N2O+
289.0527	179	C18H10ClN2+
307.0632	300	C18H12ClN2O+
