Mass spectrum: (E)-1-(2-Chloro-1,3-thiazol-5-yl methyl)-3-methyl-2-nitroguanidine; LC-ESI-QFT; MS2; CE: 150%; R=15000; [M+H]+
Name: (E)-1-(2-Chloro-1,3-thiazol-5-yl methyl)-3-methyl-2-nitroguanidine
Name: 1-[(2-chloro-1,3-thiazol-5-yl)methyl]-2-methyl-3-nitroguanidine
Formula: C6H8ClN5O2S
Exact mass: 249.0087232
SMILES: CN\C(NCC1=CN=C(Cl)S1)=N/[N+]([O-])=O
InChI: InChI=1S/C6H8ClN5O2S/c1-8-6(11-12(13)14)10-3-4-2-9-5(7)15-4/h2H,3H2,1H3,(H2,8,10,11)
Instrument: Q Exactive Plus
Instrument type: LC-ESI-QFT
Ms type: MS2
Ion mode: POSITIVE
Ionization: ESI
Fragmentation mode: HCD
Collision energy: 150 % (nominal)
Resolution: 15000
Column name: XBridge C18 3.5um, 2.1x50mm, Waters
Retention time: 4.165 min
Base peak: 250.016
Precursor m/z: 250.016
Precursor type: [M+H]+
Precursor intensity: 221153798.4
m/z	relative intensity	assigned
52.0182	136	C3H2N+
54.0338	999	C3H4N+
55.029	72	C2H3N2+
55.0416	169	C3H5N+
56.0494	66	C3H6N+
56.9794	118	C2HS+
57.0447	795	C2H5N2+
57.9871	171	C2H2S+
58.995	476	C2H3S+
59.9664	152	COS+
59.9902	364	CH2NS+
61.9791	241	CHClN+
67.029	70	C3H3N2+
68.0368	115	C3H4N2+
68.0493	22	C4H6N+
68.9793	126	C3HS+
69.0447	332	C3H5N2+
70.995	582	C3H3S+
71.9902	108	C2H2NS+
78.9403	345	CClS+
81.0446	63	C4H5N2+
83.0475	39	C3H5N3+
83.0605	111	C4H7N2+
83.9902	291	C3H2NS+
86.0058	816	C3H4NS+
87.995	72	C3H3ClN+
96.0556	507	C4H6N3+
97.0395	90	C4H5N2O+
98.006	139	C4H4NS+
108.0555	49	C5H6N3+
110.0713	282	C5H8N3+
113.0166	87	C4H5N2S+
119.9666	49	C3H3ClNS+
