Mass spectrum: 4-Hydroxybenzaldehyde; LC-ESI-QFT; MS2; CE: 90%; R=17500; [M-H]-
Name: 4-Hydroxybenzaldehyde
Formula: C7H6O2
Exact mass: 122.0367794
SMILES: C1=CC(=CC=C1C=O)O
InChI: InChI=1S/C7H6O2/c8-5-6-1-3-7(9)4-2-6/h1-5,9H
Instrument: Exploris 240 Orbitrap Thermo Scientific
Instrument type: LC-ESI-QFT
Ms type: MS2
Ion mode: NEGATIVE
Ionization: ESI
Fragmentation mode: HCD
Collision energy: 90 % (nominal)
Resolution: 17500
Column name: XBridge C18 3.5um, 2.1x50mm, Waters
Retention time: 3.313 min
Base peak: 121.0295
Precursor m/z: 121.0295
Precursor type: [M-H]-
m/z	relative intensity	assigned
41.0033	14	C2HO-
65.0397	16	C5H5-
70.0058	5	C3H2O2-
91.0189	72	C6H3O-
92.0268	517	C6H4O-
93.0346	119	C6H5O-
95.014	17	C5H3O2-
108.0217	29	C6H4O2-
119.0137	3	C7H3O2-
120.0217	173	C7H4O2-
121.0295	999	C7H5O2-
