Mass spectrum: Tolclofos-methyl; LC-ESI-QFT; MS2; CE: 120%; R=15000; [M+H]+
Name: Tolclofos-methyl
Name: (2,6-dichloro-4-methylphenoxy)-dimethoxy-sulfanylidene-lambda5-phosphane
Formula: C9H11Cl2O3PS
Exact mass: 299.9543572
SMILES: COP(=S)(OC)OC1=C(Cl)C=C(C)C=C1Cl
InChI: InChI=1S/C9H11Cl2O3PS/c1-6-4-7(10)9(8(11)5-6)14-15(16,12-2)13-3/h4-5H,1-3H3
Instrument: Q Exactive Plus
Instrument type: LC-ESI-QFT
Ms type: MS2
Ion mode: POSITIVE
Ionization: ESI
Fragmentation mode: HCD
Collision energy: 120 % (nominal)
Resolution: 15000
Column name: XBridge C18 3.5um, 2.1x50mm, Waters
Retention time: 12.151 min
Base peak: 300.9617
Precursor m/z: 300.9616
Precursor type: [M+H]+
Precursor intensity: 57974677.45
m/z	relative intensity	assigned
50.0151	39	C4H2+
51.023	114	C4H3+
53.0023	63	C3HO+
53.0386	85	C4H5+
59.9665	35	COS+
62.0185	27	C2H6S+
62.9453	60	PS+
62.9995	44	CH4OP+
65.0386	73	C5H5+
72.9839	21	C3H2Cl+
74.0151	121	C6H2+
75.0229	999	C6H3+
76.0308	12	C6H4+
77.0385	63	C6H5+
78.9943	190	CH4O2P+
84.9839	73	C4H2Cl+
86.9996	61	C4H4Cl+
89.0386	40	C7H5+
93.01	28	C2H6O2P+
93.0336	15	C6H5O+
94.0415	10	C6H6O+
95.0492	294	C6H7O+
96.9605	18	CH3ClOP+
109.0107	123	C6H5S+
110.9997	141	C6H4Cl+
111.0439	14	C6H7O2+
112.0075	816	C6H5Cl+
121.0106	29	C7H5S+
129.0102	231	C6H6ClO+
146.9766	12	C6H5Cl2+
