Mass spectrum: Phosalone; LC-ESI-QFT; MS2; CE: 180%; R=15000; [M+H]+
Name: Phosalone
Name: 6-chloro-3-(diethoxyphosphinothioylsulfanylmethyl)-1,3-benzoxazol-2-one
Formula: C12H15ClNO4PS2
Exact mass: 366.9868643
SMILES: CCOP(=S)(OCC)SCN1C2=C(C=C(C=C2)Cl)OC1=O
InChI: InChI=1S/C12H15ClNO4PS2/c1-3-16-19(20,17-4-2)21-8-14-10-6-5-9(13)7-11(10)18-12(14)15/h5-7H,3-4,8H2,1-2H3
Instrument: Q Exactive Plus
Instrument type: LC-ESI-QFT
Ms type: MS2
Ion mode: POSITIVE
Ionization: ESI
Fragmentation mode: HCD
Collision energy: 180 % (nominal)
Resolution: 15000
Column name: XBridge C18 3.5um, 2.1x50mm, Waters
Retention time: 12.216 min
Base peak: 367.9946
Precursor m/z: 367.9941
Precursor type: [M+H]+
Precursor intensity: 198975553.66
m/z	relative intensity	assigned
50.0151	208	C4H2+
51.023	98	C4H3+
52.0181	17	C3H2N+
53.0023	12	C3HO+
63.023	43	C5H3+
64.9787	55	H2O2P+
74.0151	999	C6H2+
75.0229	589	C6H3+
76.0182	93	C5H2N+
76.0307	33	C6H4+
84.984	100	C4H2Cl+
98.9844	12	CH4ClO3+
114.9613	13	H4O3PS+
