Mass spectrum: Entacapone; LC-ESI-QFT; MS2; CE: 30%; R=15000; [M+H]+
Name: Entacapone
Name: 2-cyano-3-(3,4-dihydroxy-5-nitrophenyl)-N,N-diethylprop-2-enamide
Name: (E)-2-cyano-N,N-diethyl-3-[3-nitro-4,5-bis(oxidanyl)phenyl]prop-2-enamide
Formula: C14H15N3O5
Exact mass: 305.1011706
SMILES: CCN(CC)C(=O)C(=CC1=CC(=C(C(=C1)O)O)[N+](=O)[O-])C#N
InChI: InChI=1S/C14H15N3O5/c1-3-16(4-2)14(20)10(8-15)5-9-6-11(17(21)22)13(19)12(18)7-9/h5-7,18-19H,3-4H2,1-2H3
Instrument: Q Exactive
Instrument type: LC-ESI-QFT
Ms type: MS2
Ion mode: POSITIVE
Ionization: ESI
Fragmentation mode: HCD
Collision energy: 30 % (nominal)
Resolution: 15000
Column name: XBridge C18 3.5um, 2.1x50mm, Waters
Retention time: 6.195 min
Base peak: 306.1085
Precursor m/z: 306.1084
Precursor type: [M+H]+
Precursor intensity: 547436965.48
m/z	relative intensity	assigned
72.0444	33	C3H6NO+
72.0808	129	C4H10N+
74.0964	278	C4H12N+
99.0918	87	C5H11N2+
100.0757	116	C5H10NO+
115.0288	12	C7H3N2+
124.0758	62	C7H10NO+
131.024	50	C7H3N2O+
159.0189	121	C8H3N2O2+
170.0109	48	C9H2N2O2+
171.0189	59	C9H3N2O2+
185.0106	61	C10H3NO3+
187.0136	231	C9H3N2O3+
203.0214	195	C10H5NO4+
205.0242	43	C9H5N2O4+
215.0088	193	C10H3N2O4+
215.1052	47	C12H13N3O+
233.0194	999	C10H5N2O5+
239.1025	57	C11H15N2O4+
278.1135	32	C13H16N3O4+
306.1085	860	C14H16N3O5+
