Mass spectrum: Methylecgonine; LC-ESI-QFT; MS2; CE: 45%; R=17500; [M+H]+
Name: Methylecgonine
Name: methyl 3-hydroxy-8-methyl-8-azabicyclo[3.2.1]octane-2-carboxylate
Formula: C10H17NO3
Exact mass: 199.1208434
SMILES: CN1C2CCC1C(C(C2)O)C(=O)OC
InChI: InChI=1S/C10H17NO3/c1-11-6-3-4-7(11)9(8(12)5-6)10(13)14-2/h6-9,12H,3-5H2,1-2H3
Instrument: Exploris 240 Orbitrap Thermo Scientific
Instrument type: LC-ESI-QFT
Ms type: MS2
Ion mode: POSITIVE
Ionization: ESI
Fragmentation mode: HCD
Collision energy: 45 % (nominal)
Resolution: 17500
Column name: XBridge C18 3.5um, 2.1x50mm, Waters
Retention time: 0.884 min
Base peak: 200.128
Precursor m/z: 200.1281
Precursor type: [M+H]+
m/z	relative intensity	assigned
82.0651	160	C5H8N+
84.0807	9	C5H10N+
91.054	7	C7H7+
93.0697	7	C7H9+
96.0807	14	C6H10N+
100.0758	12	C5H10NO+
108.081	13	C7H10N+
119.0494	14	C8H7O+
122.0967	9	C8H12N+
124.1118	12	C8H14N+
150.0912	45	C9H12NO+
154.0863	9	C8H12NO2+
156.1016	18	C8H14NO2+
168.1023	38	C9H14NO2+
182.1175	999	C10H16NO2+
200.1281	960	C10H18NO3+
