Mass spectrum: Siponimod; LC-ESI-QFT; MS2; CE: 25%; R=15000; [M+H]+
Name: Siponimod
Name: 1-[[4-[(E)-N-[[4-cyclohexyl-3-(trifluoromethyl)phenyl]methoxy]-C-methylcarbonimidoyl]-2-ethylphenyl]methyl]azetidine-3-carboxylic acid
Name: 1-[[4-[N-[[4-cyclohexyl-3-(trifluoromethyl)phenyl]methoxy]-C-methylcarbonimidoyl]-2-ethylphenyl]methyl]azetidine-3-carboxylic acid
Formula: C29H35F3N2O3
Exact mass: 516.2599776
SMILES: CCC1=C(C=CC(=C1)C(=NOCC2=CC(=C(C=C2)C3CCCCC3)C(F)(F)F)C)CN4CC(C4)C(=O)O
InChI: InChI=1S/C29H35F3N2O3/c1-3-21-14-23(10-11-24(21)15-34-16-25(17-34)28(35)36)19(2)33-37-18-20-9-12-26(22-7-5-4-6-8-22)27(13-20)29(30,31)32/h9-14,22,25H,3-8,15-18H2,1-2H3,(H,35,36)
Instrument: Exploris 240 Thermo Scientific
Instrument type: LC-ESI-QFT
Ms type: MS2
Ion mode: POSITIVE
Ionization: ESI
Fragmentation mode: HCD
Collision energy: 25 % (nominal)
Resolution: 15000
Column name: XBridge C18 3.5um, 2.1x50mm, Waters
Retention time: 13.993 min
Base peak: 517.267
Precursor m/z: 517.2673
Precursor type: [M+H]+
m/z	relative intensity	assigned
69.0699	43	C5H9+
81.0698	90	C6H9+
91.0542	12	C7H7+
119.0854	53	C9H11+
146.06	88	C9H8NO+
159.0414	999	C8H6F3+
160.0763	31	C10H10NO+
160.112	270	C11H14N+
173.0571	113	C9H8F3+
178.1224	164	C11H16NO+
185.0568	22	C10H8F3+
202.0777	134	C16H10+
203.0829	34	C8H12FN2O3+
211.0726	29	C12H10F3+
239.1039	134	C14H14F3+
241.1197	312	C14H16F3+
348.1575	60	C20H21F3NO+
371.1986	69	C24H26F3+
386.223	43	C25H29F3+
416.2194	42	C25H29F3NO+
