Mass spectrum: 2-Benzyl-2-(dimethylamino)-1-[4-(morpholin-4-yl)phenyl]butan-1-one; LC-ESI-QFT; MS2; CE: 120%; R=15000; [M+H]+
Name: 2-Benzyl-2-(dimethylamino)-1-[4-(morpholin-4-yl)phenyl]butan-1-one
Name: 2-Benzyl-2-dimethylamino-1-(4-morpholinophenyl)-1-butanone
Name: 2-benzyl-2-(dimethylamino)-1-(4-morpholin-4-ylphenyl)butan-1-one
Formula: C23H30N2O2
Exact mass: 366.2307282
SMILES: CCC(CC1=CC=CC=C1)(N(C)C)C(=O)C1=CC=C(C=C1)N1CCOCC1
InChI: InChI=1S/C23H30N2O2/c1-4-23(24(2)3,18-19-8-6-5-7-9-19)22(26)20-10-12-21(13-11-20)25-14-16-27-17-15-25/h5-13H,4,14-18H2,1-3H3
Instrument: Exploris 240 Thermo Scientific
Instrument type: LC-ESI-QFT
Ms type: MS2
Ion mode: POSITIVE
Ionization: ESI
Fragmentation mode: HCD
Collision energy: 120 % (nominal)
Resolution: 15000
Column name: XBridge C18 3.5um, 2.1x50mm, Waters
Retention time: 5.169 min
Base peak: 367.2376
Precursor m/z: 367.238
Precursor type: [M+H]+
m/z	relative intensity	assigned
53.0385	51	C4H5+
56.0495	52	C3H6N+
65.0386	142	C5H5+
70.0651	115	C4H8N+
77.0387	37	C6H5+
78.0465	50	C6H6+
79.0542	200	C6H7+
90.0464	45	C7H6+
91.0542	999	C7H7+
95.0492	157	C6H7O+
103.0538	60	C8H7+
104.0494	135	C7H6N+
104.062	93	C8H8+
105.0446	79	C6H5N2+
105.0697	128	C8H9+
106.0652	103	C7H8N+
115.0541	103	C9H7+
116.0625	24	C9H8+
117.0575	190	C8H7N+
117.07	147	C9H9+
118.065	217	C8H8N+
119.0728	55	C8H9N+
129.0697	14	C10H9+
130.0648	59	C9H8N+
132.0808	201	C9H10N+
146.0963	208	C10H12N+
147.1044	76	C10H13N+
165.0702	38	C13H9+
178.0778	198	C14H10+
179.0854	139	C14H11+
190.0863	72	C11H12NO2+
202.0777	295	C16H10+
