Mass spectrum: Metolachlor; LC-ESI-QFT; MS2; CE: 75%; R=15000; [M+H]+
Name: Metolachlor
Name: 2-chloro-N-(2-ethyl-6-methylphenyl)-N-(1-methoxypropan-2-yl)acetamide
Formula: C15H22ClNO2
Exact mass: 283.1339066
SMILES: CCC1=C(N(C(C)COC)C(=O)CCl)C(C)=CC=C1
InChI: InChI=1S/C15H22ClNO2/c1-5-13-8-6-7-11(2)15(13)17(14(18)9-16)12(3)10-19-4/h6-8,12H,5,9-10H2,1-4H3
Instrument: Q Exactive Plus
Instrument type: LC-ESI-QFT
Ms type: MS2
Ion mode: POSITIVE
Ionization: ESI
Fragmentation mode: HCD
Collision energy: 75 % (nominal)
Resolution: 15000
Column name: XBridge C18 3.5um, 2.1x50mm, Waters
Retention time: 10.500 min
Base peak: 284.1412
Precursor m/z: 284.1412
Precursor type: [M+H]+
Precursor intensity: 759501235.91
m/z	relative intensity	assigned
56.0495	15	C3H6N+
65.0386	19	C5H5+
73.0647	120	C4H9O+
76.9788	171	C2H2ClO+
79.0541	48	C6H7+
91.0542	467	C7H7+
93.0573	23	C6H7N+
93.0698	70	C7H9+
95.0491	25	C6H7O+
103.0541	46	C8H7+
104.0619	30	C8H8+
105.0699	62	C8H9+
106.0651	41	C7H8N+
107.073	28	C7H9N+
107.0855	38	C8H11+
108.0807	225	C7H10N+
109.0648	106	C7H9O+
115.0542	86	C9H7+
116.0622	12	C9H8+
117.0699	253	C9H9+
118.0652	120	C8H8N+
119.073	247	C8H9N+
119.0856	132	C9H11+
120.0808	254	C8H10N+
129.07	19	C10H9+
130.0652	116	C9H8N+
131.073	160	C9H9N+
131.0854	38	C10H11+
132.0808	291	C9H10N+
133.0886	709	C9H11N+
134.0964	999	C9H12N+
135.0805	22	C9H11O+
136.1119	15	C9H14N+
143.073	148	C10H9N+
144.0809	224	C10H10N+
145.0886	167	C10H11N+
146.0604	33	C9H8NO+
146.0964	416	C10H12N+
147.0683	13	C9H9NO+
147.1039	66	C10H13N+
148.0761	21	C9H10NO+
148.1123	112	C10H14N+
158.0965	211	C11H12N+
159.1041	120	C11H13N+
160.1121	336	C11H14N+
161.1198	32	C11H15N+
162.0914	54	C10H12NO+
174.1276	26	C12H16N+
176.1433	777	C12H18N+
184.0523	155	C9H11ClNO+
212.0838	19	C11H15ClNO+
