Mass spectrum: Sacubitrilat; LC-ESI-QFT; MS2; CE: 120%; R=17500; [M+H]+
Name: Sacubitrilat
Name: (2R,4S)-4-(3-carboxypropanoylamino)-2-methyl-5-(4-phenylphenyl)pentanoic Acid
Name: 4-(3-carboxypropanoylamino)-2-methyl-5-(4-phenylphenyl)pentanoic acid
Name: LBQ657
Formula: C22H25NO5
Exact mass: 383.1732729
SMILES: CC(CC(CC1=CC=C(C=C1)C2=CC=CC=C2)NC(=O)CCC(=O)O)C(=O)O
InChI: InChI=1S/C22H25NO5/c1-15(22(27)28)13-19(23-20(24)11-12-21(25)26)14-16-7-9-18(10-8-16)17-5-3-2-4-6-17/h2-10,15,19H,11-14H2,1H3,(H,23,24)(H,25,26)(H,27,28)
Instrument: Exploris 240 Orbitrap Thermo Scientific
Instrument type: LC-ESI-QFT
Ms type: MS2
Ion mode: POSITIVE
Ionization: ESI
Fragmentation mode: HCD
Collision energy: 120 % (nominal)
Resolution: 17500
Column name: XBridge C18 3.5um, 2.1x50mm, Waters
Retention time: 9.223 min
Base peak: 384.1802
Precursor m/z: 384.1805
Precursor type: [M+H]+
m/z	relative intensity	assigned
55.0179	49	C3H3O+
55.0542	7	C4H7+
65.0386	17	C5H5+
70.065	13	C4H8N+
72.0444	19	C3H6NO+
73.0286	23	C3H5O2+
77.0384	10	C6H5+
91.0543	77	C7H7+
115.0542	100	C9H7+
128.062	36	C10H8+
141.0697	25	C11H9+
151.0541	13	C12H7+
152.0621	235	C12H8+
164.0622	8	C13H8+
165.07	455	C13H9+
166.0775	36	C13H10+
167.0858	63	C13H11+
176.0614	38	C14H8+
177.0697	75	C14H9+
178.0778	999	C14H10+
189.0697	17	C15H9+
190.0775	15	C15H10+
191.0857	76	C15H11+
192.0935	18	C15H12+
