Mass spectrum: Desacetylbisacodyl; LC-ESI-QFT; MS2; CE: 150%; R=17500; [M+H]+
Name: Desacetylbisacodyl
Name: Deacetylbisacodyl
Name: 4-[(4-hydroxyphenyl)-pyridin-2-ylmethyl]phenol
Formula: C18H15NO2
Exact mass: 277.1102787
SMILES: C1=CC=NC(=C1)C(C2=CC=C(C=C2)O)C3=CC=C(C=C3)O
InChI: InChI=1S/C18H15NO2/c20-15-8-4-13(5-9-15)18(17-3-1-2-12-19-17)14-6-10-16(21)11-7-14/h1-12,18,20-21H
Instrument: Exploris 240 Orbitrap Thermo Scientific
Instrument type: LC-ESI-QFT
Ms type: MS2
Ion mode: POSITIVE
Ionization: ESI
Fragmentation mode: HCD
Collision energy: 150 % (nominal)
Resolution: 17500
Column name: XBridge C18 3.5um, 2.1x50mm, Waters
Retention time: 3.446 min
Base peak: 278.117
Precursor m/z: 278.1176
Precursor type: [M+H]+
m/z	relative intensity	assigned
51.0229	19	C4H3+
53.0385	12	C4H5+
77.0388	25	C6H5+
78.034	41	C5H4N+
78.0463	8	C6H6+
80.0497	17	C5H6N+
89.0388	37	C7H5+
90.0467	13	C7H6+
95.0494	14	C6H7O+
102.0468	28	C8H6+
103.0541	19	C8H7+
107.0492	9	C7H7O+
113.039	9	C9H5+
114.0468	17	C9H6+
115.0541	47	C9H7+
117.0575	35	C8H7N+
127.0541	84	C10H7+
128.0497	62	C9H6N+
128.0623	105	C10H8+
129.0573	39	C9H7N+
139.0542	234	C11H7+
140.0495	113	C10H6N+
140.0623	39	C11H8+
141.0573	24	C10H7N+
145.0651	22	C10H9O+
146.0601	16	C9H8NO+
153.0574	21	C11H7N+
154.0651	999	C11H8N+
155.0737	40	C11H9N+
164.0493	16	C12H6N+
165.0578	31	C12H7N+
166.0651	360	C12H8N+
167.0729	362	C12H9N+
182.0603	178	C12H8NO+
183.068	119	C12H9NO+
