Mass spectrum: Tepraloxydim; LC-ESI-QFT; MS2; CE: 90%; R=15000; [M+H]+
Name: Tepraloxydim
Name: 2-Cyclohexen-1-one, 2-(1-((((2E)-3-chloro-2-propenyl)oxy)imino)propyl)-3-hydroxy-5-(tetrahydro-2H-pyran-4-yl)-
Name: 2-[N-[(E)-3-chloroprop-2-enoxy]-C-ethylcarbonimidoyl]-3-hydroxy-5-(oxan-4-yl)cyclohex-2-en-1-one
Formula: C17H24ClNO4
Exact mass: 341.1393859
SMILES: CCC(=C1C(=O)CC(CC1=O)C2CCOCC2)NOCC=CCl
InChI: InChI=1S/C17H24ClNO4/c1-2-14(19-23-7-3-6-18)17-15(20)10-13(11-16(17)21)12-4-8-22-9-5-12/h3,6,12-13,19H,2,4-5,7-11H2,1H3
Instrument: Q Exactive Plus
Instrument type: LC-ESI-QFT
Ms type: MS2
Ion mode: POSITIVE
Ionization: ESI
Fragmentation mode: HCD
Collision energy: 90 % (nominal)
Resolution: 15000
Column name: XBridge C18 3.5um, 2.1x50mm, Waters
Retention time: 9.984 min
Base peak: 342.147
Precursor m/z: 342.1467
Precursor type: [M+H]+
Precursor intensity: 337553619.09
m/z	relative intensity	assigned
51.023	38	C4H3+
53.0386	263	C4H5+
54.0339	47	C3H4N+
55.0179	81	C3H3O+
55.0542	196	C4H7+
56.0495	229	C3H6N+
57.0336	17	C3H5O+
65.0386	204	C5H5+
66.0464	25	C5H6+
67.0179	27	C4H3O+
67.0417	95	C4H5N+
67.0543	336	C5H7+
68.0495	285	C4H6N+
69.0335	94	C4H5O+
70.0652	50	C4H8N+
72.0445	52	C3H6NO+
74.9996	270	C3H4Cl+
77.0385	79	C6H5+
79.0542	458	C6H7+
80.0495	99	C5H6N+
81.0335	87	C5H5O+
81.0573	48	C5H7N+
81.0699	141	C6H9+
82.0652	178	C5H8N+
83.0492	120	C5H7O+
91.0543	944	C7H7+
92.0493	21	C6H6N+
93.0574	113	C6H7N+
93.0699	295	C7H9+
94.0652	240	C6H8N+
95.0492	483	C6H7O+
95.0853	30	C7H11+
96.0444	492	C5H6NO+
97.0522	36	C5H7NO+
98.0601	999	C5H8NO+
103.0543	395	C8H7+
105.0699	164	C8H9+
107.0492	77	C7H7O+
107.0729	21	C7H9N+
107.0855	25	C8H11+
108.0445	35	C6H6NO+
108.0808	256	C7H10N+
109.0649	49	C7H9O+
110.0601	196	C6H8NO+
110.0966	87	C7H12N+
111.068	36	C6H9NO+
115.0543	124	C9H7+
116.0622	41	C9H8+
117.0572	29	C8H7N+
117.0698	67	C9H9+
119.0491	39	C8H7O+
119.0857	25	C9H11+
120.0804	48	C8H10N+
121.0648	438	C8H9O+
122.06	71	C7H8NO+
124.0393	17	C6H6NO2+
124.0757	43	C7H10NO+
126.055	34	C6H8NO2+
128.0621	73	C10H8+
129.0702	58	C10H9+
131.049	33	C9H7O+
131.0855	30	C10H11+
132.0807	31	C9H10N+
136.0756	93	C8H10NO+
138.0911	61	C8H12NO+
141.0697	26	C11H9+
142.0499	64	C6H8NO3+
148.0757	40	C9H10NO+
149.0597	88	C9H9O2+
160.0757	23	C10H10NO+
