Mass spectrum: Quinoxyfen; LC-ESI-QFT; MS2; CE: 120%; R=15000; [M+H]+
Name: Quinoxyfen
Name: 5,7-dichloro-4-(4-fluorophenoxy)quinoline
Formula: C15H8Cl2FNO
Exact mass: 306.9966975
SMILES: FC1=CC=C(OC2=CC=NC3=CC(Cl)=CC(Cl)=C23)C=C1
InChI: InChI=1S/C15H8Cl2FNO/c16-9-7-12(17)15-13(8-9)19-6-5-14(15)20-11-3-1-10(18)2-4-11/h1-8H
Instrument: Q Exactive Plus
Instrument type: LC-ESI-QFT
Ms type: MS2
Ion mode: POSITIVE
Ionization: ESI
Fragmentation mode: HCD
Collision energy: 120 % (nominal)
Resolution: 15000
Column name: XBridge C18 3.5um, 2.1x50mm, Waters
Retention time: 13.956 min
Base peak: 308.0044
Precursor m/z: 308.004
Precursor type: [M+H]+
Precursor intensity: 283474084.27
m/z	relative intensity	assigned
51.023	19	C4H3+
53.0022	40	C3HO+
69.0136	23	C4H2F+
72.984	35	C3H2Cl+
74.0151	401	C6H2+
75.0229	999	C6H3+
77.0021	57	C5HO+
88.0308	24	C7H4+
89.0386	80	C7H5+
95.0292	70	C6H4F+
96.984	17	C5H2Cl+
98.0149	11	C8H2+
99.023	114	C8H3+
100.0182	34	C7H2N+
108.9842	26	C6H2Cl+
113.0399	71	C6H6FO+
114.0339	90	C8H4N+
115.0417	216	C8H5N+
116.0497	15	C8H6N+
122.9996	410	C7H4Cl+
123.995	13	C6H3ClN+
125.0152	17	C7H6Cl+
126.0338	85	C9H4N+
127.0417	298	C9H5N+
130.0057	22	C5H5ClNO+
132.0444	21	C8H6NO+
134.9995	36	C8H4Cl+
144.0445	46	C9H6NO+
150.0106	126	C8H5ClN+
151.0184	168	C8H6ClN+
161.0028	22	C9H4ClN+
162.0105	961	C9H5ClN+
163.0059	77	C11HNO+
163.0542	25	C13H7+
168.0211	43	C8H7ClNO+
169.9686	60	C8H4Cl2+
179.0133	51	C9H6ClNO+
180.0214	11	C9H7ClNO+
181.0447	57	C13H6F+
183.0611	40	C13H8F+
184.9795	60	C8H5Cl2N+
190.065	37	C14H8N+
195.9718	11	C9H4Cl2N+
208.0558	100	C14H7FN+
209.0638	39	C14H8FN+
213.9822	40	C9H6Cl2NO+
