Mass spectrum: Cloquintocet-mexyl; LC-ESI-QFT; MS2; CE: 15%; R=15000; [M+H]+
Name: Cloquintocet-mexyl
Name: heptan-2-yl 2-(5-chloroquinolin-8-yl)oxyacetate
Formula: C18H22ClNO3
Exact mass: 335.1288212
SMILES: CCCCCC(C)OC(=O)COC1=CC=C(Cl)C2=CC=CN=C12
InChI: InChI=1S/C18H22ClNO3/c1-3-4-5-7-13(2)23-17(21)12-22-16-10-9-15(19)14-8-6-11-20-18(14)16/h6,8-11,13H,3-5,7,12H2,1-2H3
Instrument: Q Exactive Plus
Instrument type: LC-ESI-QFT
Ms type: MS2
Ion mode: POSITIVE
Ionization: ESI
Fragmentation mode: HCD
Collision energy: 15 % (nominal)
Resolution: 15000
Column name: XBridge C18 3.5um, 2.1x50mm, Waters
Retention time: 13.722 min
Base peak: 336.1363
Precursor m/z: 336.1361
Precursor type: [M+H]+
Precursor intensity: 314351778.17
m/z	relative intensity	assigned
238.0266	999	C11H9ClNO3+
