Mass spectrum: Trimetazidine; LC-ESI-QFT; MS2; CE: 40%; R=15000; [M+H]+
Name: Trimetazidine
Name: 1-[(2,3,4-trimethoxyphenyl)methyl]piperazine
Formula: C14H22N2O3
Exact mass: 266.1630426
SMILES: COC1=C(C(=C(C=C1)CN2CCNCC2)OC)OC
InChI: InChI=1S/C14H22N2O3/c1-17-12-5-4-11(13(18-2)14(12)19-3)10-16-8-6-15-7-9-16/h4-5,15H,6-10H2,1-3H3
Instrument: Exploris 240 Thermo Scientific
Instrument type: LC-ESI-QFT
Ms type: MS2
Ion mode: POSITIVE
Ionization: ESI
Fragmentation mode: HCD
Collision energy: 40 % (nominal)
Resolution: 15000
Column name: XBridge C18 3.5um, 2.1x50mm, Waters
Retention time: 1.902 min
Base peak: 267.1699
Precursor m/z: 267.1703
Precursor type: [M+H]+
m/z	relative intensity	assigned
65.0386	14	C5H5+
78.0463	15	C6H6+
91.0542	155	C7H7+
93.0699	22	C7H9+
95.049	14	C6H7O+
106.0415	25	C7H6O+
108.057	32	C7H8O+
109.0647	20	C7H9O+
121.0645	20	C8H9O+
123.0805	36	C8H11O+
135.044	69	C8H7O2+
136.0518	358	C8H8O2+
151.0389	123	C8H7O3+
153.0903	11	C9H13O2+
165.0543	79	C9H9O3+
166.0624	999	C9H10O3+
181.0859	48	C10H13O3+
