Mass spectrum: Triglycidyl isocyanurate; LC-ESI-QFT; MS2; CE: 30%; R=15000; [M+H]+
Name: Triglycidyl isocyanurate
Name: 1,3,5-tris(oxiran-2-ylmethyl)-1,3,5-triazinane-2,4,6-trione
Formula: C12H15N3O6
Exact mass: 297.0960852
SMILES: O=C1N(CC2CO2)C(=O)N(CC2CO2)C(=O)N1CC1CO1
InChI: InChI=1S/C12H15N3O6/c16-10-13(1-7-4-19-7)11(17)15(3-9-6-21-9)12(18)14(10)2-8-5-20-8/h7-9H,1-6H2
Instrument: Exploris 240 Thermo Scientific
Instrument type: LC-ESI-QFT
Ms type: MS2
Ion mode: POSITIVE
Ionization: ESI
Fragmentation mode: HCD
Collision energy: 30 % (nominal)
Resolution: 15000
Column name: XBridge C18 3.5um, 2.1x50mm, Waters
Retention time: 2.903 min
Base peak: 298.1031
Precursor m/z: 298.1034
Precursor type: [M+H]+
m/z	relative intensity	assigned
55.0178	34	C3H3O+
56.0494	22	C3H6N+
57.0334	78	C3H5O+
59.049	11	C3H7O+
74.0598	12	C3H8NO+
82.0287	403	C4H4NO+
87.0188	66	C2H3N2O2+
99.0188	32	C3H3N2O2+
100.0393	73	C4H6NO2+
113.0346	33	C4H5N2O2+
125.0342	59	C5H5N2O2+
130.0246	999	C3H4N3O3+
143.045	108	C5H7N2O3+
156.0403	119	C5H6N3O3+
168.0402	74	C6H6N3O3+
186.0509	279	C6H8N3O4+
224.0664	49	C9H10N3O4+
242.0773	116	C9H12N3O5+
298.1033	514	C12H16N3O6+
