Mass spectrum: Clodinafop-propargyl; LC-ESI-QFT; MS2; CE: 60%; R=15000; [M+H]+
Name: Clodinafop-propargyl
Name: 2-(4-((5-Chloro-3-fluoro-2-pyridinyl)oxy)phenoxy)propanoic acid 2-propyn-1-yl ester
Name: prop-2-ynyl 2-[4-(5-chloro-3-fluoropyridin-2-yl)oxyphenoxy]propanoate
Formula: C17H13ClFNO4
Exact mass: 349.0517138
SMILES: CC(C(=O)OCC#C)OC1=CC=C(C=C1)OC2=NC=C(C=C2F)Cl
InChI: InChI=1S/C17H13ClFNO4/c1-3-8-22-17(21)11(2)23-13-4-6-14(7-5-13)24-16-15(19)9-12(18)10-20-16/h1,4-7,9-11H,8H2,2H3
Instrument: Exploris 240 Thermo Scientific
Instrument type: LC-ESI-QFT
Ms type: MS2
Ion mode: POSITIVE
Ionization: ESI
Fragmentation mode: HCD
Collision energy: 60 % (nominal)
Resolution: 15000
Column name: XBridge C18 3.5um, 2.1x50mm, Waters
Retention time: 10.935 min
Base peak: 350.0585
Precursor m/z: 350.059
Precursor type: [M+H]+
m/z	relative intensity	assigned
55.0178	15	C3H3O+
65.0385	38	C5H5+
91.0541	999	C7H7+
92.0619	37	C7H8+
109.0648	13	C7H9O+
119.0491	88	C8H7O+
120.0567	76	C8H8O+
121.0285	25	C7H5O2+
121.0649	28	C8H9O+
131.049	39	C9H7O+
147.9956	49	C8HFO2+
176.0503	53	C13H6N+
182.0159	23	C12H3FO+
185.0631	16	C12H8FN+
187.0421	22	C11H6FNO+
194.0163	14	C13H3FO+
202.0659	15	C12H9FNO+
222.0112	560	C14H3FO2+
238.0064	157	C11H6ClFNO2+
238.0426	128	C15H7FO2+
239.0139	53	C11H7ClFNO2+
266.0375	38	C16H7FO3+
