Mass spectrum: Thiazopyr; LC-ESI-QFT; MS2; CE: 30%; R=15000; [M+H]+
Name: Thiazopyr
Name: methyl 2-(difluoromethyl)-5-(4,5-dihydro-1,3-thiazol-2-yl)-4-(2-methylpropyl)-6-(trifluoromethyl)pyridine-3-carboxylate
Formula: C16H17F5N2O2S
Exact mass: 396.0930899
SMILES: COC(=O)C1=C(CC(C)C)C(C2=NCCS2)=C(N=C1C(F)F)C(F)(F)F
InChI: InChI=1S/C16H17F5N2O2S/c1-7(2)6-8-9(15(24)25-3)11(13(17)18)23-12(16(19,20)21)10(8)14-22-4-5-26-14/h7,13H,4-6H2,1-3H3
Instrument: Q Exactive Plus
Instrument type: LC-ESI-QFT
Ms type: MS2
Ion mode: POSITIVE
Ionization: ESI
Fragmentation mode: HCD
Collision energy: 30 % (nominal)
Resolution: 15000
Column name: XBridge C18 3.5um, 2.1x50mm, Waters
Retention time: 11.443 min
Base peak: 397.1005
Precursor m/z: 397.1004
Precursor type: [M+H]+
Precursor intensity: 1271256978.97
m/z	relative intensity	assigned
61.0107	25	C2H5S+
75.0263	14	C3H7S+
250.0673	12	C13H10F2NO2+
297.0857	38	C14H15F2N2OS+
300.0639	14	C14H10F4NO2+
317.0912	65	C14H13F4N2O2+
335.0473	51	C13H11F4N2O2S+
337.0808	25	C16H15F2N2O2S+
357.0877	33	C16H16F3N2O2S+
377.0942	463	C16H17F4N2O2S+
397.1005	999	C16H18F5N2O2S+
