Mass spectrum: Triclopyr; LC-ESI-QFT; MS2; CE: 15%; R=15000; [M+H]+
Name: Triclopyr
Name: 2-(3,5,6-trichloropyridin-2-yl)oxyacetic acid
Formula: C7H4Cl3NO3
Exact mass: 254.925676
SMILES: OC(=O)COC1=C(Cl)C=C(Cl)C(Cl)=N1
InChI: InChI=1S/C7H4Cl3NO3/c8-3-1-4(9)7(11-6(3)10)14-2-5(12)13/h1H,2H2,(H,12,13)
Instrument: Q Exactive Plus
Instrument type: LC-ESI-QFT
Ms type: MS2
Ion mode: POSITIVE
Ionization: ESI
Fragmentation mode: HCD
Collision energy: 15 % (nominal)
Resolution: 15000
Column name: XBridge C18 3.5um, 2.1x50mm, Waters
Retention time: 9.064 min
Base peak: 164.9845
Precursor m/z: 255.933
Precursor type: [M+H]+
Precursor intensity: 4419539.74
m/z	relative intensity	assigned
197.9274	999	C5H3Cl3NO+
209.9274	965	C6H3Cl3NO+
237.9223	791	C7H3Cl3NO2+
255.9328	611	C7H5Cl3NO3+
