Mass spectrum: Lacidipine; LC-ESI-QFT; MS2; CE: 15%; R=15000; [M-H]-
Name: Lacidipine
Name: 2,6-Dimethyl-4-[2-[3-[(2-methylpropan-2-yl)oxy]-3-oxoprop-1-enyl]phenyl]-1,4-dihydropyridine-3,5-dicarboxylic acid diethyl ester
Name: diethyl 2,6-dimethyl-4-[2-[3-[(2-methylpropan-2-yl)oxy]-3-oxoprop-1-enyl]phenyl]-1,4-dihydropyridine-3,5-dicarboxylate
Formula: C26H33NO6
Exact mass: 455.2307878
SMILES: CCOC(=O)C1=C(NC(=C(C1C2=CC=CC=C2C=CC(=O)OC(C)(C)C)C(=O)OCC)C)C
InChI: InChI=1S/C26H33NO6/c1-8-31-24(29)21-16(3)27-17(4)22(25(30)32-9-2)23(21)19-13-11-10-12-18(19)14-15-20(28)33-26(5,6)7/h10-15,23,27H,8-9H2,1-7H3
Instrument: Exploris 240 Thermo Scientific
Instrument type: LC-ESI-QFT
Ms type: MS2
Ion mode: NEGATIVE
Ionization: ESI
Fragmentation mode: HCD
Collision energy: 15 % (nominal)
Resolution: 15000
Column name: XBridge C18 3.5um, 2.1x50mm, Waters
Retention time: 13.159 min
Base peak: 454.2235
Precursor m/z: 454.2235
Precursor type: [M-H]-
m/z	relative intensity	assigned
147.0452	97	C9H7O2-
187.0975	495	C9H15O4-
250.1084	74	C13H16NO4-
266.1187	101	C17H16NO2-
308.1291	267	C19H18NO3-
334.1086	132	C20H16NO4-
380.149	920	C22H22NO5-
408.1818	999	C24H26NO5-
