Mass spectrum: Cyproconazole; LC-ESI-QFT; MS2; CE: 180%; R=15000; [M+H]+
Name: Cyproconazole
Name: 2-(4-chlorophenyl)-3-cyclopropyl-1-(1,2,4-triazol-1-yl)butan-2-ol
Formula: C15H18ClN3O
Exact mass: 291.1138399
SMILES: CC(C1CC1)C(O)(CN1C=NC=N1)C1=CC=C(Cl)C=C1
InChI: InChI=1S/C15H18ClN3O/c1-11(12-2-3-12)15(20,8-19-10-17-9-18-19)13-4-6-14(16)7-5-13/h4-7,9-12,20H,2-3,8H2,1H3
Instrument: Q Exactive Plus
Instrument type: LC-ESI-QFT
Ms type: MS2
Ion mode: POSITIVE
Ionization: ESI
Fragmentation mode: HCD
Collision energy: 180 % (nominal)
Resolution: 15000
Column name: XBridge C18 3.5um, 2.1x50mm, Waters
Retention time: 10.179 min
Base peak: 292.1212
Precursor m/z: 292.1211
Precursor type: [M+H]+
Precursor intensity: 470547414.98
m/z	relative intensity	assigned
62.0151	121	C5H2+
63.0229	606	C5H3+
64.0309	38	C5H4+
65.0386	50	C5H5+
70.04	999	C2H4N3+
72.984	401	C3H2Cl+
74.0151	125	C6H2+
74.9996	41	C3H4Cl+
75.0229	187	C6H3+
89.0386	798	C7H5+
90.0464	147	C7H6+
98.9996	263	C5H4Cl+
125.0152	41	C7H6Cl+
