Mass spectrum: Tetramethrin; LC-ESI-QFT; MS2; CE: 180%; R=15000; [M+H]+
Name: Tetramethrin
Name: (1,3-dioxo-4,5,6,7-tetrahydroisoindol-2-yl)methyl 2,2-dimethyl-3-(2-methylprop-1-enyl)cyclopropane-1-carboxylate
Formula: C19H25NO4
Exact mass: 331.1783583
SMILES: CC(=CC1C(C1(C)C)C(=O)OCN2C(=O)C3=C(C2=O)CCCC3)C
InChI: InChI=1S/C19H25NO4/c1-11(2)9-14-15(19(14,3)4)18(23)24-10-20-16(21)12-7-5-6-8-13(12)17(20)22/h9,14-15H,5-8,10H2,1-4H3
Instrument: Exploris 240 Thermo Scientific
Instrument type: LC-ESI-QFT
Ms type: MS2
Ion mode: POSITIVE
Ionization: ESI
Fragmentation mode: HCD
Collision energy: 180 % (nominal)
Resolution: 15000
Column name: XBridge C18 3.5um, 2.1x50mm, Waters
Retention time: 13.389 min
Base peak: 332.1851
Precursor m/z: 332.1856
Precursor type: [M+H]+
m/z	relative intensity	assigned
50.015	127	C4H2+
51.0228	648	C4H3+
53.0385	302	C4H5+
56.0131	67	C2H2NO+
65.0385	291	C5H5+
66.0463	52	C5H6+
67.0541	47	C5H7+
77.0385	999	C6H5+
78.0464	38	C6H6+
79.0541	443	C6H7+
91.0541	224	C7H7+
95.049	725	C6H7O+
