Mass spectrum: 5-Fluorocytosine; LC-ESI-QFT; MS2; CE: 120%; R=17500; [M+H]+
Name: 5-Fluorocytosine
Name: Flucytosine
Name: 6-amino-5-fluoro-1H-pyrimidin-2-one
Formula: C4H4FN3O
Exact mass: 129.03384
SMILES: C1=NC(=O)NC(=C1F)N
InChI: InChI=1S/C4H4FN3O/c5-2-1-7-4(9)8-3(2)6/h1H,(H3,6,7,8,9)
Instrument: Exploris 240 Orbitrap Thermo Scientific
Instrument type: LC-ESI-QFT
Ms type: MS2
Ion mode: POSITIVE
Ionization: ESI
Fragmentation mode: HCD
Collision energy: 120 % (nominal)
Resolution: 17500
Column name: XBridge C18 3.5um, 2.1x50mm, Waters
Retention time: 0.909 min
Base peak: 130.041
Precursor m/z: 130.0411
Precursor type: [M+H]+
m/z	relative intensity	assigned
43.029	10	CH3N2+
48.0244	14	CH3FN+
56.013	27	C2H2NO+
58.0087	847	C2HFN+
60.0244	199	C2H3FN+
65.0134	11	C3HN2+
67.029	83	C3H3N2+
69.0083	19	C2HN2O+
70.0087	7	C3HFN+
85.0196	575	C3H2FN2+
87.0353	236	C3H4FN2+
92.0244	6	C4H2N3+
112.0305	151	C4H3FN3+
113.0145	999	C4H2FN2O+
130.0411	132	C4H5FN3O+
