Mass spectrum: Lufenuron; LC-ESI-QFT; MS2; CE: 150%; R=15000; [M+H]+
Name: Lufenuron
Name: N-[[2,5-dichloro-4-(1,1,2,3,3,3-hexafluoropropoxy)phenyl]carbamoyl]-2,6-difluorobenzamide
Formula: C17H8Cl2F8N2O3
Exact mass: 509.9784232
SMILES: FC(C(F)(F)F)C(F)(F)OC1=CC(Cl)=C(NC(=O)NC(=O)C2=C(F)C=CC=C2F)C=C1Cl
InChI: InChI=1S/C17H8Cl2F8N2O3/c18-6-5-11(32-17(26,27)14(22)16(23,24)25)7(19)4-10(6)28-15(31)29-13(30)12-8(20)2-1-3-9(12)21/h1-5,14H,(H2,28,29,30,31)
Instrument: Q Exactive Plus
Instrument type: LC-ESI-QFT
Ms type: MS2
Ion mode: POSITIVE
Ionization: ESI
Fragmentation mode: HCD
Collision energy: 150 % (nominal)
Resolution: 15000
Column name: XBridge C18 3.5um, 2.1x50mm, Waters
Retention time: 14.447 min
Base peak: 164.9846
Precursor m/z: 510.9857
Precursor type: [M+H]+
Precursor intensity: 22367248.74
m/z	relative intensity	assigned
57.0136	20	C3H2F+
61.0073	32	C5H+
62.0151	131	C5H2+
63.0229	999	C5H3+
68.9946	12	CF3+
74.0151	79	C6H2+
75.0229	18	C6H3+
92.0057	15	C6HF+
93.0136	125	C6H2F+
99.0104	40	C7HN+
100.0182	92	C7H2N+
111.0241	17	C6H4FO+
113.0197	72	C6H3F2+
131.0303	23	C6H5F2O+
141.0143	23	C7H3F2O+
141.0254	118	C6H3F2N2+
