Mass spectrum: O-Desarylranolazine; LC-ESI-QFT; MS2; CE: 75%; R=17500; [M+H]+
Name: O-Desarylranolazine
Name: 2-[4-(2,3-dihydroxypropyl)piperazin-1-yl]-N-(2,6-dimethylphenyl)acetamide
Formula: C17H27N3O3
Exact mass: 321.2052417
SMILES: CC1=C(C(=CC=C1)C)NC(=O)CN2CCN(CC2)CC(CO)O
InChI: InChI=1S/C17H27N3O3/c1-13-4-3-5-14(2)17(13)18-16(23)11-20-8-6-19(7-9-20)10-15(22)12-21/h3-5,15,21-22H,6-12H2,1-2H3,(H,18,23)
Instrument: Exploris 240 Orbitrap Thermo Scientific
Instrument type: LC-ESI-QFT
Ms type: MS2
Ion mode: POSITIVE
Ionization: ESI
Fragmentation mode: HCD
Collision energy: 75 % (nominal)
Resolution: 17500
Column name: XBridge C18 3.5um, 2.1x50mm, Waters
Retention time: 3.177 min
Base peak: 322.212
Precursor m/z: 322.2125
Precursor type: [M+H]+
m/z	relative intensity	assigned
56.0495	73	C3H6N+
57.0335	7	C3H5O+
58.0651	134	C3H8N+
68.0495	11	C4H6N+
70.0651	798	C4H8N+
72.0443	15	C3H6NO+
72.0808	14	C4H10N+
82.065	23	C5H8N+
83.0604	21	C4H7N2+
84.0806	25	C5H10N+
86.06	51	C4H8NO+
97.076	131	C5H9N2+
98.0838	999	C5H10N2+
99.0916	20	C5H11N2+
100.0756	289	C5H10NO+
101.1071	30	C5H13N2+
111.0919	11	C6H11N2+
112.0757	8	C6H10NO+
112.0992	23	C6H12N2+
113.1072	55	C6H13N2+
118.0863	14	C5H12NO2+
124.0999	7	C7H12N2+
128.0941	27	C6H12N2O+
130.0861	40	C6H12NO2+
134.0965	16	C9H12N+
141.1025	15	C7H13N2O+
143.1178	435	C7H15N2O+
158.105	35	C7H14N2O2+
173.1289	26	C8H17N2O2+
