Mass spectrum: O-Desarylranolazine; LC-ESI-QFT; MS2; CE: 90%; R=17500; [M+H]+
Name: O-Desarylranolazine
Name: 2-[4-(2,3-dihydroxypropyl)piperazin-1-yl]-N-(2,6-dimethylphenyl)acetamide
Formula: C17H27N3O3
Exact mass: 321.2052417
SMILES: CC1=C(C(=CC=C1)C)NC(=O)CN2CCN(CC2)CC(CO)O
InChI: InChI=1S/C17H27N3O3/c1-13-4-3-5-14(2)17(13)18-16(23)11-20-8-6-19(7-9-20)10-15(22)12-21/h3-5,15,21-22H,6-12H2,1-2H3,(H,18,23)
Instrument: Exploris 240 Orbitrap Thermo Scientific
Instrument type: LC-ESI-QFT
Ms type: MS2
Ion mode: POSITIVE
Ionization: ESI
Fragmentation mode: HCD
Collision energy: 90 % (nominal)
Resolution: 17500
Column name: XBridge C18 3.5um, 2.1x50mm, Waters
Retention time: 3.177 min
Base peak: 322.212
Precursor m/z: 322.2125
Precursor type: [M+H]+
m/z	relative intensity	assigned
56.0495	158	C3H6N+
57.0333	15	C3H5O+
57.0573	16	C3H7N+
58.0651	227	C3H8N+
68.0496	20	C4H6N+
70.0651	963	C4H8N+
72.0443	15	C3H6NO+
72.0807	28	C4H10N+
82.0652	51	C5H8N+
83.0603	68	C4H7N2+
84.0809	29	C5H10N+
86.06	58	C4H8NO+
97.076	247	C5H9N2+
98.0838	999	C5H10N2+
99.0917	16	C5H11N2+
100.0757	249	C5H10NO+
101.1072	14	C5H13N2+
111.0918	22	C6H11N2+
112.0991	30	C6H12N2+
113.1074	35	C6H13N2+
124.0989	11	C7H12N2+
128.0943	17	C6H12N2O+
130.0861	19	C6H12NO2+
134.0962	12	C9H12N+
143.118	139	C7H15N2O+
158.1054	9	C7H14N2O2+
