Mass spectrum: Myclobutanil; LC-ESI-QFT; MS2; CE: 180%; R=15000; [M+H]+
Name: Myclobutanil
Name: 2-(4-chlorophenyl)-2-(1,2,4-triazol-1-ylmethyl)hexanenitrile
Formula: C15H17ClN4
Exact mass: 288.1141742
SMILES: CCCCC(CN1C=NC=N1)(C#N)C1=CC=C(Cl)C=C1
InChI: InChI=1S/C15H17ClN4/c1-2-3-8-15(9-17,10-20-12-18-11-19-20)13-4-6-14(16)7-5-13/h4-7,11-12H,2-3,8,10H2,1H3
Instrument: Q Exactive Plus
Instrument type: LC-ESI-QFT
Ms type: MS2
Ion mode: POSITIVE
Ionization: ESI
Fragmentation mode: HCD
Collision energy: 180 % (nominal)
Resolution: 15000
Column name: XBridge C18 3.5um, 2.1x50mm, Waters
Retention time: 9.938 min
Base peak: 289.1216
Precursor m/z: 289.1215
Precursor type: [M+H]+
Precursor intensity: 913467055.69
m/z	relative intensity	assigned
50.0151	72	C4H2+
51.023	92	C4H3+
53.0387	21	C4H5+
61.0073	48	C5H+
62.0151	193	C5H2+
63.0229	787	C5H3+
64.0307	66	C5H4+
65.0387	96	C5H5+
70.04	748	C2H4N3+
72.984	526	C3H2Cl+
74.0152	75	C6H2+
74.9996	40	C3H4Cl+
75.0229	239	C6H3+
76.0307	32	C6H4+
77.0385	27	C6H5+
89.0386	999	C7H5+
90.0465	168	C7H6+
95.0492	63	C3H10ClN+
98.9997	325	C5H4Cl+
102.0463	84	C8H6+
103.0541	13	C8H7+
115.0543	305	C9H7+
125.0152	48	C7H6Cl+
128.0619	20	C10H8+
