Mass spectrum: 13-cis Retinoic acid; LC-ESI-QFT; MS2; CE: 90%; R=15000; [M+H]+
Name: 13-cis Retinoic acid
Name: 3,7-Dimethyl-9-(2,6,6-trimethylcyclohex-1-en-1-yl)nona-2,4,6,8-tetraenoic acid
Name: 3,7-dimethyl-9-(2,6,6-trimethylcyclohexen-1-yl)nona-2,4,6,8-tetraenoic acid
Formula: C20H28O2
Exact mass: 300.2089301
SMILES: CC1=C(C(CCC1)(C)C)C=CC(=CC=CC(=CC(=O)O)C)C
InChI: InChI=1S/C20H28O2/c1-15(8-6-9-16(2)14-19(21)22)11-12-18-17(3)10-7-13-20(18,4)5/h6,8-9,11-12,14H,7,10,13H2,1-5H3,(H,21,22)
Instrument: Exploris 240 Thermo Scientific
Instrument type: LC-ESI-QFT
Ms type: MS2
Ion mode: POSITIVE
Ionization: ESI
Fragmentation mode: HCD
Collision energy: 90 % (nominal)
Resolution: 15000
Column name: XBridge C18 3.5um, 2.1x50mm, Waters
Retention time: 16.524 min
Base peak: 301.2161
Precursor m/z: 301.2162
Precursor type: [M+H]+
m/z	relative intensity	assigned
53.0386	61	C4H5+
55.0543	413	C4H7+
57.07	59	C4H9+
65.0387	34	C5H5+
67.0543	435	C5H7+
69.0699	294	C5H9+
77.0387	68	C6H5+
79.0542	497	C6H7+
81.0699	860	C6H9+
91.0543	806	C7H7+
93.0699	249	C7H9+
95.049	73	C6H7O+
95.0857	245	C7H11+
105.0699	999	C8H9+
107.0856	153	C8H11+
115.0544	111	C9H7+
116.062	73	C9H8+
117.0699	280	C9H9+
119.0855	398	C9H11+
121.0651	99	C8H9O+
121.1016	46	C9H13+
123.1169	70	C9H15+
128.0622	158	C10H8+
129.0698	432	C10H9+
130.0777	140	C10H10+
131.0855	515	C10H11+
133.1012	171	C10H13+
141.07	114	C11H9+
142.0778	222	C11H10+
143.0858	236	C11H11+
144.0936	198	C11H12+
145.0647	60	C10H9O+
145.1014	249	C11H13+
156.0939	105	C12H12+
157.0651	49	C11H9O+
157.1012	158	C12H13+
158.0726	86	C11H10O+
158.1095	32	C12H14+
159.1168	146	C12H15+
161.1331	100	C12H17+
169.1013	38	C13H13+
171.1164	30	C13H15+
172.0885	45	C12H12O+
