Mass spectrum: 13-cis Retinoic acid; LC-ESI-QFT; MS2; CE: 15%; R=15000; [M+H]+
Name: 13-cis Retinoic acid
Name: 3,7-Dimethyl-9-(2,6,6-trimethylcyclohex-1-en-1-yl)nona-2,4,6,8-tetraenoic acid
Name: 3,7-dimethyl-9-(2,6,6-trimethylcyclohexen-1-yl)nona-2,4,6,8-tetraenoic acid
Formula: C20H28O2
Exact mass: 300.2089301
SMILES: CC1=C(C(CCC1)(C)C)C=CC(=CC=CC(=CC(=O)O)C)C
InChI: InChI=1S/C20H28O2/c1-15(8-6-9-16(2)14-19(21)22)11-12-18-17(3)10-7-13-20(18,4)5/h6,8-9,11-12,14H,7,10,13H2,1-5H3,(H,21,22)
Instrument: Exploris 240 Thermo Scientific
Instrument type: LC-ESI-QFT
Ms type: MS2
Ion mode: POSITIVE
Ionization: ESI
Fragmentation mode: HCD
Collision energy: 15 % (nominal)
Resolution: 15000
Column name: XBridge C18 3.5um, 2.1x50mm, Waters
Retention time: 16.524 min
Base peak: 301.2161
Precursor m/z: 301.2162
Precursor type: [M+H]+
m/z	relative intensity	assigned
109.1013	17	C8H13+
123.1167	109	C9H15+
161.096	12	C11H13O+
177.0913	23	C11H13O2+
179.1064	68	C11H15O2+
191.1064	23	C12H15O2+
201.1635	42	C15H21+
205.1222	139	C13H17O2+
241.1577	10	C17H21O+
245.1533	20	C16H21O2+
255.2101	32	C19H27+
283.2056	66	C20H27O+
301.2161	999	C20H29O2+
