Mass spectrum: Siponimod; LC-ESI-QFT; MS2; CE: 50%; R=15000; [M+H]+
Name: Siponimod
Name: 1-[[4-[(E)-N-[[4-cyclohexyl-3-(trifluoromethyl)phenyl]methoxy]-C-methylcarbonimidoyl]-2-ethylphenyl]methyl]azetidine-3-carboxylic acid
Name: 1-[[4-[N-[[4-cyclohexyl-3-(trifluoromethyl)phenyl]methoxy]-C-methylcarbonimidoyl]-2-ethylphenyl]methyl]azetidine-3-carboxylic acid
Formula: C29H35F3N2O3
Exact mass: 516.2599776
SMILES: CCC1=C(C=CC(=C1)C(=NOCC2=CC(=C(C=C2)C3CCCCC3)C(F)(F)F)C)CN4CC(C4)C(=O)O
InChI: InChI=1S/C29H35F3N2O3/c1-3-21-14-23(10-11-24(21)15-34-16-25(17-34)28(35)36)19(2)33-37-18-20-9-12-26(22-7-5-4-6-8-22)27(13-20)29(30,31)32/h9-14,22,25H,3-8,15-18H2,1-2H3,(H,35,36)
Instrument: Exploris 240 Thermo Scientific
Instrument type: LC-ESI-QFT
Ms type: MS2
Ion mode: POSITIVE
Ionization: ESI
Fragmentation mode: HCD
Collision energy: 50 % (nominal)
Resolution: 15000
Column name: XBridge C18 3.5um, 2.1x50mm, Waters
Retention time: 13.993 min
Base peak: 517.267
Precursor m/z: 517.2673
Precursor type: [M+H]+
m/z	relative intensity	assigned
69.0698	20	C5H9+
79.0541	20	C6H7+
81.07	27	C6H9+
91.0542	66	C7H7+
105.0698	13	C8H9+
109.0448	181	C7H6F+
117.07	19	C9H9+
118.0651	38	C8H8N+
133.0447	27	C9H6F+
139.0354	27	C8H5F2+
146.0601	52	C9H8NO+
153.0511	13	C9H7F2+
159.0415	999	C8H6F3+
160.0751	11	C10H10NO+
202.0777	101	C16H10+
203.0837	25	C8H12FN2O3+
