Mass spectrum: Lisinopril; LC-ESI-QFT; MS2; CE: 60%; R=15000; [M+H]+
Name: Lisinopril
Name: N2-(1-carboxy-3-phenylpropyl)lysylproline
Name: (2S)-1-[(2S)-6-azanyl-2-[[(2S)-1-oxidanyl-1-oxidanylidene-4-phenyl-butan-2-yl]amino]hexanoyl]pyrrolidine-2-carboxylic acid
Formula: C21H31N3O5
Exact mass: 405.2263711
SMILES: C1CC(N(C1)C(=O)C(CCCCN)NC(CCC2=CC=CC=C2)C(=O)O)C(=O)O
InChI: InChI=1S/C21H31N3O5/c22-13-5-4-9-16(19(25)24-14-6-10-18(24)21(28)29)23-17(20(26)27)12-11-15-7-2-1-3-8-15/h1-3,7-8,16-18,23H,4-6,9-14,22H2,(H,26,27)(H,28,29)
Instrument: Q Exactive
Instrument type: LC-ESI-QFT
Ms type: MS2
Ion mode: POSITIVE
Ionization: ESI
Fragmentation mode: HCD
Collision energy: 60 % (nominal)
Resolution: 15000
Column name: XBridge C18 3.5um, 2.1x50mm, Waters
Retention time: 3.547 min
Base peak: 406.2339
Precursor m/z: 406.2336
Precursor type: [M+H]+
Precursor intensity: 585202611.16
m/z	relative intensity	assigned
56.0496	22	C3H6N+
70.0651	22	C4H8N+
83.0731	16	C5H9N+
84.0809	999	C5H10N+
91.0543	28	C7H7+
117.0699	14	C9H9+
142.0865	50	C7H12NO2+
200.1432	24	C14H18N+
218.154	17	C14H20NO+
246.1492	32	C15H20NO2+
