Mass spectrum: 8-Hydroxymirtazapine; LC-ESI-QFT; MS2; CE: 180%; R=17500; [M+H]+
Name: 8-Hydroxymirtazapine
Name: 5-methyl-2,5,19-triazatetracyclo[13.4.0.02,7.08,13]nonadeca-1(15),8,10,12,16,18-hexaen-17-ol
Formula: C17H19N3O
Exact mass: 281.1528122
SMILES: CN1CCN2C(C1)C3=CC=CC=C3CC4=CC(=CN=C42)O
InChI: InChI=1S/C17H19N3O/c1-19-6-7-20-16(11-19)15-5-3-2-4-12(15)8-13-9-14(21)10-18-17(13)20/h2-5,9-10,16,21H,6-8,11H2,1H3
Instrument: Exploris 240 Orbitrap Thermo Scientific
Instrument type: LC-ESI-QFT
Ms type: MS2
Ion mode: POSITIVE
Ionization: ESI
Fragmentation mode: HCD
Collision energy: 180 % (nominal)
Resolution: 17500
Column name: XBridge C18 3.5um, 2.1x50mm, Waters
Retention time: 3.696 min
Base peak: 282.1597
Precursor m/z: 282.1601
Precursor type: [M+H]+
m/z	relative intensity	assigned
51.0229	385	C4H3+
53.0386	726	C4H5+
55.018	70	C3H3O+
56.0497	164	C3H6N+
58.0652	217	C3H8N+
63.023	286	C5H3+
65.0386	363	C5H5+
68.0132	723	C3H2NO+
72.0809	62	C4H10N+
77.0385	351	C6H5+
78.0339	112	C5H4N+
80.0495	215	C5H6N+
89.0385	581	C7H5+
90.0462	77	C7H6+
91.054	431	C7H7+
103.0544	247	C8H7+
105.045	150	C6H5N2+
115.0543	999	C9H7+
116.0493	145	C8H6N+
126.047	161	C10H6+
127.0543	379	C10H7+
128.062	568	C10H8+
130.0657	260	C9H8N+
139.0541	786	C11H7+
140.0498	396	C10H6N+
140.062	113	C11H8+
145.0652	148	C10H9O+
151.0545	114	C12H7+
152.0626	209	C12H8+
154.0647	488	C11H8N+
166.0655	204	C12H8N+
167.0731	153	C12H9N+
179.0611	138	C12H7N2+
181.0761	249	C12H9N2+
