Mass spectrum: Triclopyr; LC-ESI-QFT; MS2; CE: 180%; R=15000; [M+H]+
Name: Triclopyr
Name: 2-(3,5,6-trichloropyridin-2-yl)oxyacetic acid
Formula: C7H4Cl3NO3
Exact mass: 254.925676
SMILES: OC(=O)COC1=C(Cl)C=C(Cl)C(Cl)=N1
InChI: InChI=1S/C7H4Cl3NO3/c8-3-1-4(9)7(11-6(3)10)14-2-5(12)13/h1H,2H2,(H,12,13)
Instrument: Q Exactive Plus
Instrument type: LC-ESI-QFT
Ms type: MS2
Ion mode: POSITIVE
Ionization: ESI
Fragmentation mode: HCD
Collision energy: 180 % (nominal)
Resolution: 15000
Column name: XBridge C18 3.5um, 2.1x50mm, Waters
Retention time: 9.064 min
Base peak: 164.9845
Precursor m/z: 255.933
Precursor type: [M+H]+
Precursor intensity: 4419539.74
m/z	relative intensity	assigned
61.9792	419	CHClN+
62.9632	180	CClO+
70.9683	29	C3Cl+
72.9841	35	C3H2Cl+
75.0103	721	C5HN+
76.0181	77	C5H2N+
83.9762	576	C4HCl+
84.984	48	C4H2Cl+
97.9792	59	C4HClN+
106.945	437	C3HCl2+
108.9714	999	C5ClN+
109.9792	280	C5HClN+
117.9371	73	C4Cl2+
118.9451	44	C4HCl2+
