Mass spectrum: 4-Chloro-N,N-Dimethylbenzamide; LC-ESI-QFT; MS2; CE: 45%; R=15000; [M+H]+
Name: 4-Chloro-N,N-Dimethylbenzamide
Name: 4-chloranyl-N,N-dimethyl-benzamide
Formula: C9H10ClNO
Exact mass: 183.0450916
SMILES: CN(C)C(=O)C1=CC=C(C=C1)Cl
InChI: InChI=1S/C9H10ClNO/c1-11(2)9(12)7-3-5-8(10)6-4-7/h3-6H,1-2H3
Instrument: Q Exactive
Instrument type: LC-ESI-QFT
Ms type: MS2
Ion mode: POSITIVE
Ionization: ESI
Fragmentation mode: HCD
Collision energy: 45 % (nominal)
Resolution: 15000
Column name: XBridge C18 3.5um, 2.1x50mm, Waters
Retention time: 5.569 min
Base peak: 184.0527
Precursor m/z: 184.0524
Precursor type: [M+H]+
Precursor intensity: 280565066.82
m/z	relative intensity	assigned
72.0444	119	C3H6NO+
138.9947	999	C7H4ClO+
184.0525	189	C9H11ClNO+
