Mass spectrum: Methylecgonine; LC-ESI-QFT; MS2; CE: 150%; R=17500; [M+H]+
Name: Methylecgonine
Name: methyl 3-hydroxy-8-methyl-8-azabicyclo[3.2.1]octane-2-carboxylate
Formula: C10H17NO3
Exact mass: 199.1208434
SMILES: CN1C2CCC1C(C(C2)O)C(=O)OC
InChI: InChI=1S/C10H17NO3/c1-11-6-3-4-7(11)9(8(12)5-6)10(13)14-2/h6-9,12H,3-5H2,1-2H3
Instrument: Exploris 240 Orbitrap Thermo Scientific
Instrument type: LC-ESI-QFT
Ms type: MS2
Ion mode: POSITIVE
Ionization: ESI
Fragmentation mode: HCD
Collision energy: 150 % (nominal)
Resolution: 17500
Column name: XBridge C18 3.5um, 2.1x50mm, Waters
Retention time: 0.884 min
Base peak: 200.128
Precursor m/z: 200.1281
Precursor type: [M+H]+
m/z	relative intensity	assigned
53.0385	77	C4H5+
55.0543	63	C4H7+
56.0494	79	C3H6N+
57.0573	95	C3H7N+
65.0386	500	C5H5+
67.0416	243	C4H5N+
67.0543	84	C5H7+
68.0495	444	C4H6N+
69.0335	50	C4H5O+
70.0652	33	C4H8N+
71.0129	82	C3H3O2+
77.0386	88	C6H5+
79.0542	92	C6H7+
80.0494	72	C5H6N+
81.0575	38	C5H7N+
82.0651	999	C5H8N+
83.0728	85	C5H9N+
84.0807	27	C5H10N+
91.0542	194	C7H7+
94.0651	306	C6H8N+
95.0493	24	C6H7O+
96.0807	34	C6H10N+
