Mass spectrum: Apraclonidine; LC-ESI-QFT; MS2; CE: 40%; R=15000; [M+H]+
Name: Apraclonidine
Name: 2,6-bis(chloranyl)-N1-(4,5-dihydro-1H-imidazol-2-yl)benzene-1,4-diamine
Formula: C9H10Cl2N4
Exact mass: 244.0282517
SMILES: C1CN=C(N1)NC2=C(C=C(C=C2Cl)N)Cl
InChI: InChI=1S/C9H10Cl2N4/c10-6-3-5(12)4-7(11)8(6)15-9-13-1-2-14-9/h3-4H,1-2,12H2,(H2,13,14,15)
Instrument: Exploris 240 Thermo Scientific
Instrument type: LC-ESI-QFT
Ms type: MS2
Ion mode: POSITIVE
Ionization: ESI
Fragmentation mode: HCD
Collision energy: 40 % (nominal)
Resolution: 15000
Column name: XBridge C18 3.5um, 2.1x50mm, Waters
Retention time: 1.701 min
Base peak: 245.0352
Precursor m/z: 245.0355
Precursor type: [M+H]+
m/z	relative intensity	assigned
59.0605	65	C2H7N2+
69.0449	25	C3H5N2+
71.0604	37	C3H7N2+
133.0632	20	C7H7N3+
146.0714	44	C8H8N3+
167.0247	49	C7H6ClN3+
173.0819	219	C9H9N4+
174.0899	999	C9H10N4+
174.9826	351	C6H5Cl2N2+
175.0979	196	C9H11N4+
181.0269	87	C7H6ClN4+
186.9825	56	C7H5Cl2N2+
199.9773	200	C7H4Cl2N3+
201.9934	85	C7H6Cl2N3+
209.0586	474	C9H10ClN4+
228.0088	61	C9H8Cl2N3+
245.0355	389	C9H11Cl2N4+
