Mass spectrum: 2-Ethylhexyl 4-(dimethylamino)benzoate; LC-ESI-QFT; MS2; CE: 45%; R=15000; [M+H]+
Name: 2-Ethylhexyl 4-(dimethylamino)benzoate
Formula: C17H27NO2
Exact mass: 277.2041791
SMILES: CCCCC(CC)COC(=O)C1=CC=C(C=C1)N(C)C
InChI: InChI=1S/C17H27NO2/c1-5-7-8-14(6-2)13-20-17(19)15-9-11-16(12-10-15)18(3)4/h9-12,14H,5-8,13H2,1-4H3
Instrument: Exploris 240 Thermo Scientific
Instrument type: LC-ESI-QFT
Ms type: MS2
Ion mode: POSITIVE
Ionization: ESI
Fragmentation mode: HCD
Collision energy: 45 % (nominal)
Resolution: 15000
Column name: XBridge C18 3.5um, 2.1x50mm, Waters
Retention time: 15.727 min
Base peak: 278.2111
Precursor m/z: 278.2115
Precursor type: [M+H]+
m/z	relative intensity	assigned
122.0967	10	C8H12N+
151.0627	338	C8H9NO2+
166.0861	999	C9H12NO2+
202.0777	64	C16H10+
278.2114	288	C17H28NO2+
