Mass spectrum: Chlorpyrifos-methyl; LC-ESI-QFT; MS2; CE: 15%; R=15000; [M+H]+
Name: Chlorpyrifos-methyl
Name: dimethoxy-sulfanylidene-(3,5,6-trichloropyridin-2-yl)oxy-lambda5-phosphane
Formula: C7H7Cl3NO3PS
Exact mass: 320.8949838
SMILES: COP(=S)(OC)OC1=NC(Cl)=C(Cl)C=C1Cl
InChI: InChI=1S/C7H7Cl3NO3PS/c1-12-15(16,13-2)14-7-5(9)3-4(8)6(10)11-7/h3H,1-2H3
Instrument: Q Exactive Plus
Instrument type: LC-ESI-QFT
Ms type: MS2
Ion mode: POSITIVE
Ionization: ESI
Fragmentation mode: HCD
Collision energy: 15 % (nominal)
Resolution: 15000
Column name: XBridge C18 3.5um, 2.1x50mm, Waters
Retention time: 12.587 min
Base peak: 321.9024
Precursor m/z: 321.9023
Precursor type: [M+H]+
Precursor intensity: 36988659.53
m/z	relative intensity	assigned
124.982	77	C2H6O2PS+
127.0156	15	C3H8ClO3+
142.9926	381	C2H8O3PS+
289.876	233	C6H4Cl3NO2PS+
321.9022	999	C7H8Cl3NO3PS+
