Mass spectrum: O-Desarylranolazine; LC-ESI-QFT; MS2; CE: 45%; R=17500; [M-H]-
Name: O-Desarylranolazine
Name: 2-[4-(2,3-dihydroxypropyl)piperazin-1-yl]-N-(2,6-dimethylphenyl)acetamide
Formula: C17H27N3O3
Exact mass: 321.2052417
SMILES: CC1=C(C(=CC=C1)C)NC(=O)CN2CCN(CC2)CC(CO)O
InChI: InChI=1S/C17H27N3O3/c1-13-4-3-5-14(2)17(13)18-16(23)11-20-8-6-19(7-9-20)10-15(22)12-21/h3-5,15,21-22H,6-12H2,1-2H3,(H,18,23)
Instrument: Exploris 240 Orbitrap Thermo Scientific
Instrument type: LC-ESI-QFT
Ms type: MS2
Ion mode: NEGATIVE
Ionization: ESI
Fragmentation mode: HCD
Collision energy: 45 % (nominal)
Resolution: 17500
Column name: XBridge C18 3.5um, 2.1x50mm, Waters
Retention time: 3.166 min
Base peak: 146.9386
Precursor m/z: 320.198
Precursor type: [M-H]-
m/z	relative intensity	assigned
59.0138	166	C2H3O2-
120.0819	999	C8H10N-
199.1087	58	C9H15N2O3-
242.1662	103	C15H20N3-
246.1607	272	C14H20N3O-
260.1766	437	C15H22N3O-
302.188	96	C17H24N3O2-
320.1981	360	C17H26N3O3-
