Mass spectrum: Hesperitin; LC-ESI-QFT; MS2; CE: 150%; R=17500; [M+H]+
Name: Hesperitin
Name: 5,7-dihydroxy-2-(3-hydroxy-4-methoxyphenyl)-3,4-dihydro-2H-1-benzopyran-4-one
Name: 5,7-dihydroxy-2-(3-hydroxy-4-methoxyphenyl)-2,3-dihydrochromen-4-one
Formula: C16H14O6
Exact mass: 302.0790382
SMILES: COC1=C(C=C(C=C1)C2CC(=O)C3=C(C=C(C=C3O2)O)O)O
InChI: InChI=1S/C16H14O6/c1-21-13-3-2-8(4-10(13)18)14-7-12(20)16-11(19)5-9(17)6-15(16)22-14/h2-6,14,17-19H,7H2,1H3
Instrument: Exploris 240 Orbitrap Thermo Scientific
Instrument type: LC-ESI-QFT
Ms type: MS2
Ion mode: POSITIVE
Ionization: ESI
Fragmentation mode: HCD
Collision energy: 150 % (nominal)
Resolution: 17500
Column name: XBridge C18 3.5um, 2.1x50mm, Waters
Retention time: 6.321 min
Base peak: 303.086
Precursor m/z: 303.0863
Precursor type: [M+H]+
m/z	relative intensity	assigned
50.0151	57	C4H2+
51.023	137	C4H3+
52.0307	80	C4H4+
53.0022	27	C3HO+
53.0386	81	C4H5+
55.0178	195	C3H3O+
62.0151	30	C5H2+
63.0228	615	C5H3+
65.0386	262	C5H5+
66.0465	61	C5H6+
67.0178	52	C4H3O+
68.9971	794	C3HO2+
69.0334	190	C4H5O+
77.0385	193	C6H5+
78.0463	405	C6H6+
79.0178	71	C5H3O+
79.054	28	C6H7+
89.0385	999	C7H5+
91.0545	53	C7H7+
94.0414	54	C6H6O+
95.049	52	C6H7O+
102.0463	19	C8H6+
103.0546	16	C8H7+
105.0337	104	C7H5O+
106.0415	39	C7H6O+
115.0543	56	C9H7+
134.0366	29	C8H6O2+
139.0543	41	C11H7+
