Mass spectrum: Abacavir; LC-ESI-QFT; MS2; CE: 180%; R=17500; [M+H]+
Name: Abacavir
Name: {4-[2-amino-6-(cyclopropylamino)-9H-purin-9-yl]cyclopent-2-en-1-yl}methanol
Name: [4-[2-amino-6-(cyclopropylamino)purin-9-yl]cyclopent-2-en-1-yl]methanol
Formula: C14H18N6O
Exact mass: 286.1542092
SMILES: C1CC1NC2=C3C(=NC(=N2)N)N(C=N3)C4CC(C=C4)CO
InChI: InChI=1S/C14H18N6O/c15-14-18-12(17-9-2-3-9)11-13(19-14)20(7-16-11)10-4-1-8(5-10)6-21/h1,4,7-10,21H,2-3,5-6H2,(H3,15,17,18,19)
Instrument: Exploris 240 Orbitrap Thermo Scientific
Instrument type: LC-ESI-QFT
Ms type: MS2
Ion mode: POSITIVE
Ionization: ESI
Fragmentation mode: HCD
Collision energy: 180 % (nominal)
Resolution: 17500
Column name: XBridge C18 3.5um, 2.1x50mm, Waters
Retention time: 3.267 min
Base peak: 287.1609
Precursor m/z: 287.1615
Precursor type: [M+H]+
m/z	relative intensity	assigned
50.015	163	C4H2+
51.0229	999	C4H3+
53.0386	180	C4H5+
54.0213	140	C2H2N2+
55.0291	455	C2H3N2+
65.0134	242	C3HN2+
65.0386	130	C5H5+
66.0213	125	C3H2N2+
67.029	118	C3H3N2+
67.0542	237	C5H7+
68.0244	116	C2H2N3+
77.0385	907	C6H5+
79.0541	137	C6H7+
80.0244	134	C3H2N3+
81.0322	57	C3H3N3+
82.0399	72	C3H4N3+
92.0242	204	C4H2N3+
94.0404	43	C4H4N3+
95.0491	331	C6H7O+
105.0449	295	C6H5N2+
107.0352	190	C4H3N4+
108.0431	123	C4H4N4+
109.0508	90	C4H5N4+
