Mass spectrum: 3-Hydroxymethylmefenamic acid; LC-ESI-QFT; MS2; CE: 180%; R=17500; [M+H]+
Name: 3-Hydroxymethylmefenamic acid
Name: 3-Hydroxymethyl Mefenamic Acid
Name: 2-[3-(hydroxymethyl)-2-methylanilino]benzoic acid
Formula: C15H15NO3
Exact mass: 257.1051933
SMILES: CC1=C(C=CC=C1NC2=CC=CC=C2C(=O)O)CO
InChI: InChI=1S/C15H15NO3/c1-10-11(9-17)5-4-8-13(10)16-14-7-3-2-6-12(14)15(18)19/h2-8,16-17H,9H2,1H3,(H,18,19)
Instrument: Exploris 240 Orbitrap Thermo Scientific
Instrument type: LC-ESI-QFT
Ms type: MS2
Ion mode: POSITIVE
Ionization: ESI
Fragmentation mode: HCD
Collision energy: 180 % (nominal)
Resolution: 17500
Column name: XBridge C18 3.5um, 2.1x50mm, Waters
Retention time: 8.513 min
Base peak: 258.1122
Precursor m/z: 258.1125
Precursor type: [M+H]+
m/z	relative intensity	assigned
50.0151	75	C4H2+
51.0229	273	C4H3+
63.0229	186	C5H3+
64.0308	64	C5H4+
65.0384	229	C5H5+
76.0309	37	C6H4+
77.0385	297	C6H5+
78.0466	51	C6H6+
89.0385	261	C7H5+
90.0466	29	C7H6+
91.0543	110	C7H7+
92.0256	81	C6H4O+
95.049	126	C6H7O+
102.0463	65	C8H6+
114.0467	67	C9H6+
115.054	338	C9H7+
116.0496	57	C8H6N+
117.0576	61	C8H7N+
126.0462	119	C10H6+
127.054	43	C10H7+
128.0495	142	C9H6N+
139.0541	999	C11H7+
140.0493	696	C10H6N+
150.0463	177	C12H6+
151.0543	158	C12H7+
152.0622	428	C12H8+
153.0575	67	C11H7N+
154.0652	66	C11H8N+
163.0541	100	C13H7+
164.0623	73	C13H8+
166.0649	611	C12H8N+
167.0727	300	C12H9N+
177.0573	125	C13H7N+
178.0649	284	C13H8N+
180.0805	107	C13H10N+
190.0646	149	C14H8N+
191.0728	287	C14H9N+
