Mass spectrum: para-Hydroxyatorvastatin; LC-ESI-QFT; MS2; CE: 45%; R=17500; [M+H]+
Name: para-Hydroxyatorvastatin
Name: 7-[2-(4-fluorophenyl)-4-[(4-hydroxyphenyl)carbamoyl]-3-phenyl-5-propan-2-ylpyrrol-1-yl]-3,5-dihydroxyheptanoic acid
Formula: C33H35FN2O6
Exact mass: 574.2479151
SMILES: CC(C)C1=C(C(=C(N1CCC(CC(CC(=O)O)O)O)C2=CC=C(C=C2)F)C3=CC=CC=C3)C(=O)NC4=CC=C(C=C4)O
InChI: InChI=1S/C33H35FN2O6/c1-20(2)31-30(33(42)35-24-12-14-25(37)15-13-24)29(21-6-4-3-5-7-21)32(22-8-10-23(34)11-9-22)36(31)17-16-26(38)18-27(39)19-28(40)41/h3-15,20,26-27,37-39H,16-19H2,1-2H3,(H,35,42)(H,40,41)
Instrument: Exploris 240 Orbitrap Thermo Scientific
Instrument type: LC-ESI-QFT
Ms type: MS2
Ion mode: POSITIVE
Ionization: ESI
Fragmentation mode: HCD
Collision energy: 45 % (nominal)
Resolution: 17500
Column name: XBridge C18 3.5um, 2.1x50mm, Waters
Retention time: 8.169 min
Base peak: 575.2547
Precursor m/z: 575.2552
Precursor type: [M+H]+
m/z	relative intensity	assigned
79.0542	23	C6H7+
83.0491	13	C5H7O+
101.0594	12	C5H9O2+
108.0443	68	C6H6NO+
136.0393	12	C7H6NO2+
209.0764	7	C15H10F+
237.095	10	C16H12FN+
238.1027	74	C16H13FN+
248.0876	12	C17H11FN+
249.0948	65	C17H12FN+
250.1026	999	C17H13FN+
252.1183	36	C17H15FN+
262.1028	49	C18H13FN+
264.1183	21	C18H15FN+
276.0827	34	C18H11FNO+
276.118	416	C19H15FN+
277.1256	14	C19H16FN+
280.1497	30	C19H19FN+
292.1496	371	C20H19FN+
294.1656	32	C20H21FN+
300.1187	6	C21H15FN+
302.0959	11	C23H12N+
302.134	47	C21H17FN+
306.1279	28	C20H17FNO+
318.1656	78	C22H21FN+
320.1449	57	C21H19FNO+
336.177	24	C22H23FNO+
344.1434	36	C26H18N+
362.1538	151	C26H20NO+
378.2238	7	C25H29FNO+
379.1573	17	C23H22FNO3+
398.1768	12	C23H25FNO4+
404.2023	22	C26H27FNO2+
422.2128	43	C26H29FNO3+
440.2235	75	C26H31FNO4+
466.2023	65	C27H29FNO5+
