Mass spectrum: para-Hydroxyatorvastatin; LC-ESI-QFT; MS2; CE: 120%; R=17500; [M+H]+
Name: para-Hydroxyatorvastatin
Name: 7-[2-(4-fluorophenyl)-4-[(4-hydroxyphenyl)carbamoyl]-3-phenyl-5-propan-2-ylpyrrol-1-yl]-3,5-dihydroxyheptanoic acid
Formula: C33H35FN2O6
Exact mass: 574.2479151
SMILES: CC(C)C1=C(C(=C(N1CCC(CC(CC(=O)O)O)O)C2=CC=C(C=C2)F)C3=CC=CC=C3)C(=O)NC4=CC=C(C=C4)O
InChI: InChI=1S/C33H35FN2O6/c1-20(2)31-30(33(42)35-24-12-14-25(37)15-13-24)29(21-6-4-3-5-7-21)32(22-8-10-23(34)11-9-22)36(31)17-16-26(38)18-27(39)19-28(40)41/h3-15,20,26-27,37-39H,16-19H2,1-2H3,(H,35,42)(H,40,41)
Instrument: Exploris 240 Orbitrap Thermo Scientific
Instrument type: LC-ESI-QFT
Ms type: MS2
Ion mode: POSITIVE
Ionization: ESI
Fragmentation mode: HCD
Collision energy: 120 % (nominal)
Resolution: 17500
Column name: XBridge C18 3.5um, 2.1x50mm, Waters
Retention time: 8.169 min
Base peak: 575.2547
Precursor m/z: 575.2552
Precursor type: [M+H]+
m/z	relative intensity	assigned
65.0386	62	C5H5+
68.0131	70	C3H2NO+
69.0335	40	C4H5O+
71.0128	44	C3H3O2+
77.0385	323	C6H5+
79.0541	61	C6H7+
80.0495	101	C5H6N+
81.0334	999	C5H5O+
83.029	69	C5H4F+
83.0491	44	C5H7O+
89.0387	69	C7H5+
90.0465	46	C7H6+
91.0543	152	C7H7+
95.0493	86	C6H7O+
101.0386	71	C8H5+
103.0543	97	C8H7+
104.0494	121	C7H6N+
105.0449	77	C6H5N2+
107.0293	35	C7H4F+
108.0444	797	C6H6NO+
109.0446	174	C7H6F+
115.0541	484	C9H7+
116.0497	33	C8H6N+
117.0576	110	C8H7N+
121.0451	37	C8H6F+
122.0397	149	C7H5FN+
123.0356	50	C6H4FN2+
125.0384	133	C10H5+
126.0462	46	C10H6+
127.0541	452	C10H7+
128.0495	145	C9H6N+
128.0623	303	C10H8+
129.0449	95	C8H5N2+
129.0697	41	C10H9+
130.0653	53	C9H8N+
133.0448	379	C9H6F+
135.0483	56	C8H6FN+
139.0541	46	C11H7+
141.07	64	C11H9+
145.0447	126	C10H6F+
145.0647	127	C10H9O+
152.049	51	C11H6N+
152.0623	141	C12H8+
153.057	46	C11H7N+
153.0705	47	C12H9+
155.0602	313	C10H7N2+
163.0551	28	C10H8FO+
165.0703	68	C13H9+
166.0652	23	C12H8N+
167.0724	69	C12H9N+
172.056	122	C11H7FN+
173.0504	164	C10H6FN2+
180.0806	53	C13H10N+
183.0604	221	C13H8F+
189.0698	109	C15H9+
196.0683	150	C14H9F+
200.0623	36	C16H8+
201.07	89	C16H9+
202.0779	544	C16H10+
203.086	53	C16H11+
207.06	331	C15H8F+
213.0704	84	C17H9+
217.0896	36	C16H11N+
220.0682	697	C16H9F+
221.0767	220	C16H10F+
227.0732	70	C17H9N+
230.0966	56	C17H12N+
231.0609	64	C8H11N2O6+
233.0763	520	C17H10F+
234.0711	471	C16H9FN+
235.079	680	C16H10FN+
236.0881	46	C16H11FN+
241.0896	53	C15H12FNO+
248.087	936	C17H11FN+
249.0953	84	C17H12FN+
250.1032	48	C17H13FN+
257.0763	63	C19H10F+
259.0796	143	C18H10FN+
260.0867	132	C18H11FN+
261.0949	249	C18H12FN+
262.1023	79	C18H13FN+
272.0869	115	C19H11FN+
274.1032	101	C19H13FN+
276.118	60	C19H15FN+
