Mass spectrum: Diazepam; LC-ESI-QFT; MS2; CE: 75%; R=15000; [M+H]+
Name: Diazepam
Name: 7-chloro-1-methyl-5-phenyl-3H-1,4-benzodiazepin-2-one
Formula: C16H13ClN2O
Exact mass: 284.0716407
SMILES: CN1C2=C(C=C(Cl)C=C2)C(=NCC1=O)C1=CC=CC=C1
InChI: InChI=1S/C16H13ClN2O/c1-19-14-8-7-12(17)9-13(14)16(18-10-15(19)20)11-5-3-2-4-6-11/h2-9H,10H2,1H3
Instrument: Q Exactive Plus
Instrument type: LC-ESI-QFT
Ms type: MS2
Ion mode: POSITIVE
Ionization: ESI
Fragmentation mode: HCD
Collision energy: 75 % (nominal)
Resolution: 15000
Column name: XBridge C18 3.5um, 2.1x50mm, Waters
Retention time: 8.885 min
Base peak: 285.079
Precursor m/z: 285.0789
Precursor type: [M+H]+
Precursor intensity: 504649844.09
m/z	relative intensity	assigned
53.0386	11	C4H5+
58.0287	78	C2H4NO+
65.0385	21	C5H5+
89.0385	50	C7H5+
90.0463	20	C7H6+
91.0542	399	C7H7+
95.0491	38	C6H7O+
98.9998	12	C5H4Cl+
104.0495	62	C7H6N+
105.0334	28	C7H5O+
105.0449	11	C6H5N2+
109.0648	11	C7H9O+
113.0151	21	C6H6Cl+
114.0105	20	C5H5ClN+
116.0494	88	C8H6N+
117.0573	180	C8H7N+
118.0651	155	C8H8N+
119.073	115	C8H9N+
125.0153	191	C7H6Cl+
126.0231	23	C7H7Cl+
127.0308	12	C7H8Cl+
131.0604	37	C8H7N2+
138.0107	38	C7H5ClN+
139.018	45	C10H3O+
140.026	37	C7H7ClN+
141.034	24	C7H8ClN+
143.0603	111	C9H7N2+
144.0682	43	C9H8N2+
145.076	23	C9H9N2+
147.0676	33	C9H9NO+
150.0106	54	C8H5ClN+
151.0183	15	C8H6ClN+
152.0259	38	C8H7ClN+
153.0341	10	C8H8ClN+
154.0417	641	C8H9ClN+
163.0055	18	C8H4ClN2+
165.0698	69	C13H9+
166.0778	18	C13H10+
167.0131	54	C8H6ClNO+
172.0631	60	C10H8N2O+
177.0215	49	C9H6ClN2+
179.037	85	C9H8ClN2+
180.021	41	C9H7ClNO+
180.0805	61	C13H10N+
181.0886	15	C13H11N+
190.0649	10	C14H8N+
191.0731	29	C14H9N+
192.0807	80	C14H10N+
193.0886	999	C14H11N+
194.0964	57	C14H12N+
199.031	14	C13H8Cl+
204.0808	76	C15H10N+
206.083	105	C14H10N2+
207.0916	133	C14H11N2+
214.0421	11	C13H9ClN+
216.0576	38	C13H11ClN+
221.0835	21	C15H11NO+
221.1074	110	C15H13N2+
222.1151	264	C15H14N2+
227.0495	74	C14H10ClN+
228.0575	74	C14H11ClN+
239.0368	13	C14H8ClN2+
241.0526	244	C14H10ClN2+
242.0604	22	C14H11ClN2+
255.0683	45	C15H12ClN2+
257.0843	16	C15H14ClN2+
269.047	10	C15H10ClN2O+
