Mass spectrum: para-Hydroxyatorvastatin; LC-ESI-QFT; MS2; CE: 30%; R=17500; [M+H]+
Name: para-Hydroxyatorvastatin
Name: 7-[2-(4-fluorophenyl)-4-[(4-hydroxyphenyl)carbamoyl]-3-phenyl-5-propan-2-ylpyrrol-1-yl]-3,5-dihydroxyheptanoic acid
Formula: C33H35FN2O6
Exact mass: 574.2479151
SMILES: CC(C)C1=C(C(=C(N1CCC(CC(CC(=O)O)O)O)C2=CC=C(C=C2)F)C3=CC=CC=C3)C(=O)NC4=CC=C(C=C4)O
InChI: InChI=1S/C33H35FN2O6/c1-20(2)31-30(33(42)35-24-12-14-25(37)15-13-24)29(21-6-4-3-5-7-21)32(22-8-10-23(34)11-9-22)36(31)17-16-26(38)18-27(39)19-28(40)41/h3-15,20,26-27,37-39H,16-19H2,1-2H3,(H,35,42)(H,40,41)
Instrument: Exploris 240 Orbitrap Thermo Scientific
Instrument type: LC-ESI-QFT
Ms type: MS2
Ion mode: POSITIVE
Ionization: ESI
Fragmentation mode: HCD
Collision energy: 30 % (nominal)
Resolution: 17500
Column name: XBridge C18 3.5um, 2.1x50mm, Waters
Retention time: 8.169 min
Base peak: 575.2547
Precursor m/z: 575.2552
Precursor type: [M+H]+
m/z	relative intensity	assigned
108.0443	2	C6H6NO+
250.1023	36	C17H13FN+
276.1179	11	C19H15FN+
280.1486	6	C19H19FN+
292.1495	123	C20H19FN+
294.1651	22	C20H21FN+
320.1456	2	C21H19FNO+
362.1532	25	C26H20NO+
378.223	4	C25H29FNO+
398.1762	25	C23H25FNO4+
404.202	25	C26H27FNO2+
422.2127	133	C26H29FNO3+
440.2231	999	C26H31FNO4+
441.2259	12	C26H33O6+
448.1908	10	C30H26NO3+
466.2023	71	C27H29FNO5+
