Mass spectrum: 3-Acetyl-2,5-dimethylfuran; LC-ESI-QFT; MS2; CE: 30%; R=15000; [M+H]+
Name: 3-Acetyl-2,5-dimethylfuran
Name: 1-(2,5-dimethylfuran-3-yl)ethanone
Formula: C8H10O2
Exact mass: 138.0680796
SMILES: CC1=CC(=C(O1)C)C(=O)C
InChI: InChI=1S/C8H10O2/c1-5-4-8(6(2)9)7(3)10-5/h4H,1-3H3
Instrument: Q Exactive Plus
Instrument type: LC-ESI-QFT
Ms type: MS2
Ion mode: POSITIVE
Ionization: ESI
Fragmentation mode: HCD
Collision energy: 30 % (nominal)
Resolution: 15000
Column name: XBridge C18 3.5um, 2.1x50mm, Waters
Retention time: 6.373 min
Base peak: 139.0753
Precursor m/z: 139.0754
Precursor type: [M+H]+
Precursor intensity: 240912339.38
m/z	relative intensity	assigned
97.0648	303	C6H9O+
139.0753	999	C8H11O2+
