Mass spectrum: Propyzamide; LC-ESI-QFT; MS2; CE: 75%; R=15000; [M+H]+
Name: Propyzamide
Name: 3,5-dichloro-N-(2-methylbut-3-yn-2-yl)benzamide
Formula: C12H11Cl2NO
Exact mass: 255.0217693
SMILES: CC(C)(NC(=O)C1=CC(Cl)=CC(Cl)=C1)C#C
InChI: InChI=1S/C12H11Cl2NO/c1-4-12(2,3)15-11(16)8-5-9(13)7-10(14)6-8/h1,5-7H,2-3H3,(H,15,16)
Instrument: Q Exactive Plus
Instrument type: LC-ESI-QFT
Ms type: MS2
Ion mode: POSITIVE
Ionization: ESI
Fragmentation mode: HCD
Collision energy: 75 % (nominal)
Resolution: 15000
Column name: XBridge C18 3.5um, 2.1x50mm, Waters
Retention time: 9.576 min
Base peak: 256.0291
Precursor m/z: 256.029
Precursor type: [M+H]+
Precursor intensity: 427532914.61
m/z	relative intensity	assigned
51.0229	17	C4H3+
62.9632	13	CClO+
65.0386	225	C5H5+
67.0543	300	C5H7+
84.984	115	C4H2Cl+
86.9633	19	C3ClO+
108.9841	69	C6H2Cl+
112.9787	24	C5H2ClO+
120.9606	68	C4H3Cl2+
126.9944	114	C6H4ClO+
128.0024	127	C6H5ClO+
129.0103	34	C6H6ClO+
139.0059	48	C9HNO+
144.9606	69	C6H3Cl2+
145.005	33	C3H9Cl2NO+
146.9762	54	C6H5Cl2+
162.9712	258	C6H5Cl2O+
172.9551	999	C7H3Cl2O+
172.9671	662	C9ClNO+
189.9816	41	C7H6Cl2NO+
