Mass spectrum: Abacavir 5`-carboxylate; LC-ESI-QFT; MS2; CE: 120%; R=17500; [M+H]+
Name: Abacavir 5`-carboxylate
Name: 4-[2-amino-6-(cyclopropylamino)purin-9-yl]cyclopent-2-ene-1-carboxylic acid
Formula: C14H16N6O2
Exact mass: 300.1334738
SMILES: C1CC1NC2=C3C(=NC(=N2)N)N(C=N3)C4CC(C=C4)C(=O)O
InChI: InChI=1S/C14H16N6O2/c15-14-18-11(17-8-2-3-8)10-12(19-14)20(6-16-10)9-4-1-7(5-9)13(21)22/h1,4,6-9H,2-3,5H2,(H,21,22)(H3,15,17,18,19)
Instrument: Exploris 240 Orbitrap Thermo Scientific
Instrument type: LC-ESI-QFT
Ms type: MS2
Ion mode: POSITIVE
Ionization: ESI
Fragmentation mode: HCD
Collision energy: 120 % (nominal)
Resolution: 17500
Column name: XBridge C18 3.5um, 2.1x50mm, Waters
Retention time: 3.369 min
Base peak: 301.1404
Precursor m/z: 301.1408
Precursor type: [M+H]+
m/z	relative intensity	assigned
53.0386	22	C4H5+
55.0291	163	C2H3N2+
55.0542	164	C4H7+
56.0495	54	C3H6N+
58.0651	243	C3H8N+
65.0386	723	C5H5+
67.0291	92	C3H3N2+
67.0542	592	C5H7+
68.0244	26	C2H2N3+
68.0495	69	C4H6N+
78.034	58	C5H4N+
80.0243	174	C3H2N3+
81.0321	19	C3H3N3+
82.0398	159	C3H4N3+
83.0492	99	C5H7O+
92.0244	234	C4H2N3+
93.0335	48	C6H5O+
93.0449	58	C5H5N2+
94.0401	54	C4H4N3+
95.0606	75	C5H7N2+
105.045	61	C6H5N2+
106.0401	31	C5H4N3+
107.0352	708	C4H3N4+
108.043	396	C4H4N4+
108.0556	32	C5H6N3+
109.0509	541	C4H5N4+
119.0356	60	C5H3N4+
120.0557	46	C6H6N3+
122.0713	40	C6H8N3+
133.0385	96	C5H3N5+
134.0461	999	C5H4N5+
147.0669	27	C7H7N4+
150.065	222	C5H6N6+
174.0782	31	C8H8N5+
