Mass spectrum: 4-(Diethylamino)benzaldehyde; LC-ESI-QFT; MS2; CE: 90%; R=15000; [M+H]+
Name: 4-(Diethylamino)benzaldehyde
Formula: C11H15NO
Exact mass: 177.1153641
SMILES: CCN(CC)C1=CC=C(C=C1)C=O
InChI: InChI=1S/C11H15NO/c1-3-12(4-2)11-7-5-10(9-13)6-8-11/h5-9H,3-4H2,1-2H3
Instrument: Exploris 240 Thermo Scientific
Instrument type: LC-ESI-QFT
Ms type: MS2
Ion mode: POSITIVE
Ionization: ESI
Fragmentation mode: HCD
Collision energy: 90 % (nominal)
Resolution: 15000
Column name: XBridge C18 3.5um, 2.1x50mm, Waters
Retention time: 7.291 min
Base peak: 178.1225
Precursor m/z: 178.1226
Precursor type: [M+H]+
m/z	relative intensity	assigned
66.0463	20	C5H6+
77.0384	35	C6H5+
79.0543	80	C6H7+
93.0574	102	C6H7N+
94.0651	119	C6H8N+
106.0651	570	C7H8N+
120.0808	275	C8H10N+
121.0887	57	C8H11N+
122.0964	84	C8H12N+
134.06	999	C8H8NO+
134.0962	328	C9H12N+
148.0759	22	C9H10NO+
148.1121	160	C10H14N+
150.1276	51	C10H16N+
