Mass spectrum: Eriodictyol; LC-ESI-QFT; MS2; CE: 90%; R=17500; [M+H]+
Name: Eriodictyol
Name: (+/-)-Eriodictyol
Name: 2-(3,4-dihydroxyphenyl)-5,7-dihydroxy-2,3-dihydrochromen-4-one
Formula: C15H12O6
Exact mass: 288.0633881
SMILES: C1C(OC2=CC(=CC(=C2C1=O)O)O)C3=CC(=C(C=C3)O)O
InChI: InChI=1S/C15H12O6/c16-8-4-11(19)15-12(20)6-13(21-14(15)5-8)7-1-2-9(17)10(18)3-7/h1-5,13,16-19H,6H2
Instrument: Exploris 240 Orbitrap Thermo Scientific
Instrument type: LC-ESI-QFT
Ms type: MS2
Ion mode: POSITIVE
Ionization: ESI
Fragmentation mode: HCD
Collision energy: 90 % (nominal)
Resolution: 17500
Column name: XBridge C18 3.5um, 2.1x50mm, Waters
Retention time: 5.359 min
Base peak: 289.0705
Precursor m/z: 289.0707
Precursor type: [M+H]+
m/z	relative intensity	assigned
53.0386	14	C4H5+
55.0179	52	C3H3O+
63.023	20	C5H3+
65.0386	75	C5H5+
67.0179	157	C4H3O+
68.9971	252	C3HO2+
69.0335	239	C4H5O+
77.0386	54	C6H5+
79.0179	21	C5H3O+
79.0541	74	C6H7+
81.0335	18	C5H5O+
83.0128	38	C4H3O2+
85.0285	14	C4H5O2+
89.0386	680	C7H5+
91.0539	12	C7H7+
93.0335	60	C6H5O+
95.049	26	C6H7O+
97.0285	99	C5H5O2+
103.0541	7	C8H7+
107.0492	72	C7H7O+
111.0076	32	C5H3O3+
111.0438	19	C6H7O2+
117.0335	385	C8H5O+
123.0438	73	C7H7O2+
125.0235	19	C6H5O3+
131.0496	15	C9H7O+
135.044	280	C8H7O2+
145.028	49	C9H5O2+
153.0182	999	C7H5O4+
163.0388	52	C9H7O3+
