Mass spectrum: PFEESA; LC-ESI-QFT; MS2; CE: 90%; R=17500; [M-H]-
Name: PFEESA
Name: 1,1,2,2-Tetrafluoro-2-(perfluoroethoxy)ethanesulfonic acid
Name: 1,1,2,2-tetrafluoro-2-(1,1,2,2,2-pentafluoroethoxy)ethanesulfonic acid
Formula: C4HF9O4S
Exact mass: 315.945183492
SMILES: C(C(F)(F)F)(OC(C(F)(F)S(=O)(=O)O)(F)F)(F)F
InChI: InChI=1S/C4HF9O4S/c5-1(6,7)2(8,9)17-3(10,11)4(12,13)18(14,15)16/h(H,14,15,16)
Instrument: Exploris 240 Orbitrap Thermo Scientific
Instrument type: LC-ESI-QFT
Ms type: MS2
Ion mode: NEGATIVE
Ionization: ESI
Fragmentation mode: HCD
Collision energy: 90 % (nominal)
Resolution: 17500
Column name: XBridge C18 3.5um, 2.1x50mm, Waters
Retention time: 6.071 min
Base peak: 314.9379
Precursor m/z: 314.9379
Precursor type: [M-H]-
m/z	relative intensity	assigned
68.9958	999	CF3-
79.9574	16	O3S-
82.9609	187	FO2S-
98.9558	91	FO3S-
134.9875	962	C2F5O-
