Mass spectrum: 4-(Diethylamino)benzaldehyde; LC-ESI-QFT; MS2; CE: 120%; R=15000; [M+H]+
Name: 4-(Diethylamino)benzaldehyde
Formula: C11H15NO
Exact mass: 177.1153641
SMILES: CCN(CC)C1=CC=C(C=C1)C=O
InChI: InChI=1S/C11H15NO/c1-3-12(4-2)11-7-5-10(9-13)6-8-11/h5-9H,3-4H2,1-2H3
Instrument: Exploris 240 Thermo Scientific
Instrument type: LC-ESI-QFT
Ms type: MS2
Ion mode: POSITIVE
Ionization: ESI
Fragmentation mode: HCD
Collision energy: 120 % (nominal)
Resolution: 15000
Column name: XBridge C18 3.5um, 2.1x50mm, Waters
Retention time: 7.291 min
Base peak: 178.1225
Precursor m/z: 178.1226
Precursor type: [M+H]+
m/z	relative intensity	assigned
53.0386	26	C4H5+
66.0464	64	C5H6+
77.0387	234	C6H5+
78.0465	90	C6H6+
79.0543	425	C6H7+
91.0543	16	C7H7+
93.0574	149	C6H7N+
94.0652	87	C6H8N+
95.0493	173	C6H7O+
103.0543	22	C8H7+
106.0652	999	C7H8N+
118.0651	40	C8H8N+
120.0808	171	C8H10N+
134.0601	645	C8H8NO+
134.0963	161	C9H12N+
