Mass spectrum: Amlodipine metabolite M9; LC-ESI-QFT; MS2; CE: 75%; R=17500; [M+H]+
Name: Amlodipine metabolite M9
Name: 3-Ethyl 5-methyl 2-((2-aminoethoxy)methyl)-4-(2-chlorophenyl)-6-methylpyridine-3,5-dicarboxylate
Name: 3-O-ethyl 5-O-methyl 2-(2-aminoethoxymethyl)-4-(2-chlorophenyl)-6-methylpyridine-3,5-dicarboxylate
Name: Dehydroamlodipine
Formula: C20H23ClN2O5
Exact mass: 406.1295495
SMILES: CCOC(=O)C1=C(C(=C(N=C1COCCN)C)C(=O)OC)C2=CC=CC=C2Cl
InChI: InChI=1S/C20H23ClN2O5/c1-4-28-20(25)18-15(11-27-10-9-22)23-12(2)16(19(24)26-3)17(18)13-7-5-6-8-14(13)21/h5-8H,4,9-11,22H2,1-3H3
Instrument: Exploris 240 Orbitrap Thermo Scientific
Instrument type: LC-ESI-QFT
Ms type: MS2
Ion mode: POSITIVE
Ionization: ESI
Fragmentation mode: HCD
Collision energy: 75 % (nominal)
Resolution: 17500
Column name: XBridge C18 3.5um, 2.1x50mm, Waters
Retention time: 6.888 min
Base peak: 407.1365
Precursor m/z: 407.1368
Precursor type: [M+H]+
m/z	relative intensity	assigned
139.0545	6	C11H7+
152.0622	31	C12H8+
161.0156	16	C10H6Cl+
166.0653	25	C12H8N+
167.0728	68	C12H9N+
168.0573	17	C9H11ClN+
175.0307	23	C11H8Cl+
194.06	27	C13H8NO+
195.0678	22	C13H9NO+
200.0265	24	C12H7ClN+
201.0099	22	C12H6ClO+
202.042	12	C12H9ClN+
215.026	15	C13H8ClO+
222.0552	31	C14H8NO2+
223.0392	20	C14H7O3+
223.0633	12	C11H12ClN2O+
228.0214	45	C13H7ClNO+
229.0043	13	C14HN2O2+
229.0291	48	C13H8ClNO+
230.0367	658	C13H9ClNO+
258.0317	999	C14H9ClNO2+
286.0269	106	C15H9ClNO3+
