Mass spectrum: Sulfentrazone; LC-ESI-QFT; MS2; CE: 75%; R=15000; [M-H]-
Name: Sulfentrazone
Name: N-[2,4-dichloro-5-[4-(difluoromethyl)-3-methyl-5-oxo-1,2,4-triazol-1-yl]phenyl]methanesulfonamide
Formula: C11H10Cl2F2N4O3S
Exact mass: 385.981873
SMILES: CC1=NN(C(=O)N1C(F)F)C1=CC(NS(C)(=O)=O)=C(Cl)C=C1Cl
InChI: InChI=1S/C11H10Cl2F2N4O3S/c1-5-16-19(11(20)18(5)10(14)15)9-4-8(17-23(2,21)22)6(12)3-7(9)13/h3-4,10,17H,1-2H3
Instrument: Q Exactive Plus
Instrument type: LC-ESI-QFT
Ms type: MS2
Ion mode: NEGATIVE
Ionization: ESI
Fragmentation mode: HCD
Collision energy: 75 % (nominal)
Resolution: 15000
Column name: XBridge C18 3.5um, 2.1x50mm, Waters
Retention time: 6.498 min
Base peak: 384.9746
Precursor m/z: 384.9746
Precursor type: [M-H]-
Precursor intensity: 116507073.09
m/z	relative intensity	assigned
50.0034	10	C3N-
63.9624	70	O2S-
70.9461	49	Cl2H-
71.0051	70	C2FN2-
76.9703	109	CHO2S-
78.9859	22	CH3O2S-
82.0411	43	C3H4N3-
100.0067	62	C6N2-
101.0146	63	C6HN2-
112.0066	12	C7N2-
126.0098	108	C7N3-
134.9755	30	C6ClN2-
148.0325	24	CH9FN2O3S-
153.0224	135	C7H6ClN2-
161.9861	24	C7HClN3-
164.9864	40	C7H2ClN2O-
165.0203	13	C9HN4-
171.96	67	C6H2Cl2N2-
176.0022	25	C8H3ClN3-
177.9814	15	C7HClN3O-
178.0178	28	C8H5ClN3-
179.9966	38	C10N2O2-
182.9519	25	C7HCl2N2-
189.9814	176	C8HClN3O-
198.9471	999	C7HCl2N2O-
199.9548	58	C7H2Cl2N2O-
200.963	56	C7H3Cl2N2O-
212.9631	34	C3ClF2N4O3-
221.0237	16	C9H6ClN4O-
225.9581	133	C8H2Cl2N3O-
239.9736	93	C9H4Cl2N3O-
