Mass spectrum: Acetylcedrene; LC-ESI-QFT; MS2; CE: 15%; R=15000; [M+H]+
Name: Acetylcedrene
Name: Ethanone, 1-(2,3,4,7,8,8a-hexahydro-3,6,8,8-tetramethyl-1H-3a,7-methanoazulen-5-yl)-
Name: 1-(2,6,6,8-tetramethyl-9-tricyclo[5.3.1.01,5]undec-8-enyl)ethanone
Formula: C17H26O
Exact mass: 246.1983655
SMILES: CC1CCC2C13CC(C2(C)C)C(=C(C3)C(=O)C)C
InChI: InChI=1S/C17H26O/c1-10-6-7-15-16(4,5)14-9-17(10,15)8-13(11(14)2)12(3)18/h10,14-15H,6-9H2,1-5H3
Instrument: Exploris 240 Thermo Scientific
Instrument type: LC-ESI-QFT
Ms type: MS2
Ion mode: POSITIVE
Ionization: ESI
Fragmentation mode: HCD
Collision energy: 15 % (nominal)
Resolution: 15000
Column name: XBridge C18 3.5um, 2.1x50mm, Waters
Retention time: 15.042 min
Base peak: 247.2055
Precursor m/z: 247.2056
Precursor type: [M+H]+
m/z	relative intensity	assigned
229.1953	40	C17H25+
247.2056	999	C17H27O+
