Mass spectrum: Nimesulide; LC-ESI-QFT; MS2; CE: 15%; R=17500; [M-H]-
Name: Nimesulide
Name: N-(4-nitro-2-phenoxyphenyl)methanesulfonamide
Formula: C13H12N2O5S
Exact mass: 308.046692484
SMILES: CS(=O)(=O)NC1=C(C=C(C=C1)[N+](=O)[O-])OC2=CC=CC=C2
InChI: InChI=1S/C13H12N2O5S/c1-21(18,19)14-12-8-7-10(15(16)17)9-13(12)20-11-5-3-2-4-6-11/h2-9,14H,1H3
Instrument: Exploris 240 Orbitrap Thermo Scientific
Instrument type: LC-ESI-QFT
Ms type: MS2
Ion mode: NEGATIVE
Ionization: ESI
Fragmentation mode: HCD
Collision energy: 15 % (nominal)
Resolution: 17500
Column name: XBridge C18 3.5um, 2.1x50mm, Waters
Retention time: 7.689 min
Base peak: 307.0393
Precursor m/z: 307.0394
Precursor type: [M-H]-
m/z	relative intensity	assigned
78.9858	11	CH3O2S-
228.0538	26	C12H8N2O3-
229.0618	337	C12H9N2O3-
261.0471	2	C13H11NO3S-
307.0395	999	C13H11N2O5S-
