Mass spectrum: Acetylcedrene; LC-ESI-QFT; MS2; CE: 30%; R=15000; [M+H]+
Name: Acetylcedrene
Name: Ethanone, 1-(2,3,4,7,8,8a-hexahydro-3,6,8,8-tetramethyl-1H-3a,7-methanoazulen-5-yl)-
Name: 1-(2,6,6,8-tetramethyl-9-tricyclo[5.3.1.01,5]undec-8-enyl)ethanone
Formula: C17H26O
Exact mass: 246.1983655
SMILES: CC1CCC2C13CC(C2(C)C)C(=C(C3)C(=O)C)C
InChI: InChI=1S/C17H26O/c1-10-6-7-15-16(4,5)14-9-17(10,15)8-13(11(14)2)12(3)18/h10,14-15H,6-9H2,1-5H3
Instrument: Exploris 240 Thermo Scientific
Instrument type: LC-ESI-QFT
Ms type: MS2
Ion mode: POSITIVE
Ionization: ESI
Fragmentation mode: HCD
Collision energy: 30 % (nominal)
Resolution: 15000
Column name: XBridge C18 3.5um, 2.1x50mm, Waters
Retention time: 15.042 min
Base peak: 247.2055
Precursor m/z: 247.2056
Precursor type: [M+H]+
m/z	relative intensity	assigned
69.0699	15	C5H9+
71.0492	11	C4H7O+
81.0699	11	C6H9+
95.0855	20	C7H11+
107.0858	16	C8H11+
109.1013	25	C8H13+
119.0855	18	C9H11+
121.1013	29	C9H13+
123.0805	70	C8H11O+
123.1169	23	C9H15+
133.1014	28	C10H13+
135.0804	40	C9H11O+
135.1163	17	C10H15+
147.1167	33	C11H15+
149.1324	37	C11H17+
151.1115	13	C10H15O+
159.1168	40	C12H15+
163.1118	71	C11H15O+
173.1325	55	C13H17+
175.1479	32	C13H19+
177.1274	43	C12H17O+
177.1634	44	C13H21+
187.148	25	C14H19+
189.1635	61	C14H21+
191.1429	43	C13H19O+
203.1798	25	C15H23+
229.1951	270	C17H25+
247.2056	999	C17H27O+
