Mass spectrum: 5-Hydroxysulfapyridine; LC-ESI-QFT; MS2; CE: 120%; R=17500; [M+H]+
Name: 5-Hydroxysulfapyridine
Name: Benzenesulfonamide, 4-amino-N-(5-hydroxy-2-pyridinyl)-
Name: 4-amino-N-(5-hydroxypyridin-2-yl)benzenesulfonamide
Formula: C11H11N3O3S
Exact mass: 265.0521122
SMILES: C1=CC(=CC=C1N)S(=O)(=O)NC2=NC=C(C=C2)O
InChI: InChI=1S/C11H11N3O3S/c12-8-1-4-10(5-2-8)18(16,17)14-11-6-3-9(15)7-13-11/h1-7,15H,12H2,(H,13,14)
Instrument: Exploris 240 Orbitrap Thermo Scientific
Instrument type: LC-ESI-QFT
Ms type: MS2
Ion mode: POSITIVE
Ionization: ESI
Fragmentation mode: HCD
Collision energy: 120 % (nominal)
Resolution: 17500
Column name: XBridge C18 3.5um, 2.1x50mm, Waters
Retention time: 2.562 min
Base peak: 266.0591
Precursor m/z: 266.0594
Precursor type: [M+H]+
m/z	relative intensity	assigned
53.026	20	C3H3N+
53.0385	22	C4H5+
54.0338	208	C3H4N+
55.0179	13	C3H3O+
55.0417	123	C3H5N+
56.0495	13	C3H6N+
65.0386	999	C5H5+
66.0338	20	C4H4N+
66.0464	38	C5H6+
77.0385	13	C6H5+
80.0495	312	C5H6N+
81.0448	148	C4H5N2+
82.0286	21	C4H4NO+
82.0525	367	C4H6N2+
83.0367	32	C4H5NO+
92.0494	275	C6H6N+
93.0573	148	C6H7N+
94.0288	47	C5H4NO+
108.0444	193	C6H6NO+
110.0476	50	C5H6N2O+
111.0552	55	C5H7N2O+
112.0392	64	C5H6NO2+
155.0605	29	C10H7N2+
156.0686	12	C10H8N2+
183.0555	17	C11H7N2O+
199.0741	10	C11H9N3O+
