Mass spectrum: Sulfentrazone; LC-ESI-QFT; MS2; CE: 75%; R=15000; [M+H]+
Name: Sulfentrazone
Name: N-[2,4-dichloro-5-[4-(difluoromethyl)-3-methyl-5-oxo-1,2,4-triazol-1-yl]phenyl]methanesulfonamide
Formula: C11H10Cl2F2N4O3S
Exact mass: 385.981873
SMILES: CC1=NN(C(=O)N1C(F)F)C1=CC(NS(C)(=O)=O)=C(Cl)C=C1Cl
InChI: InChI=1S/C11H10Cl2F2N4O3S/c1-5-16-19(11(20)18(5)10(14)15)9-4-8(17-23(2,21)22)6(12)3-7(9)13/h3-4,10,17H,1-2H3
Instrument: Q Exactive Plus
Instrument type: LC-ESI-QFT
Ms type: MS2
Ion mode: POSITIVE
Ionization: ESI
Fragmentation mode: HCD
Collision energy: 75 % (nominal)
Resolution: 15000
Column name: XBridge C18 3.5um, 2.1x50mm, Waters
Retention time: 6.517 min
Base peak: 386.9893
Precursor m/z: 386.9891
Precursor type: [M+H]+
Precursor intensity: 79056822.8
m/z	relative intensity	assigned
61.9792	97	CHClN+
68.013	14	C3H2NO+
72.9839	39	C3H2Cl+
74.0036	84	C2HFNO+
75.0105	13	C5HN+
76.0181	41	C5H2N+
82.9449	11	CHCl2+
84.9839	68	C4H2Cl+
92.0306	82	C3H4F2N+
97.9792	16	C4HClN+
99.0427	42	C3H5N3O+
99.9946	28	C4H3ClN+
101.0134	151	C6HN2+
102.0104	13	C4H5ClN+
103.029	38	C6H3N2+
106.9449	10	C3HCl2+
109.9792	708	C5HClN+
111.9948	103	C5H3ClN+
119.024	19	C6H3N2O+
121.0396	11	C6H5N2O+
127.0059	15	C5H4ClN2+
130.0055	31	C5H5ClNO+
133.9557	19	C4H2Cl2N+
136.9901	350	C6H2ClN2+
139.0057	671	C6H4ClN2+
145.9558	660	C5H2Cl2N+
146.0002	157	ClFH4N4O2+
147.9715	58	C5H4Cl2N+
153.0087	12	C6H4ClN3+
154.0165	39	C6H5ClN3+
155.0005	487	C6H4ClN2O+
163.9663	999	Cl2FH3N4O+
170.9511	48	C6HCl2N2+
172.9668	175	C6H3Cl2N2+
173.951	57	C6ClFO3+
173.9743	84	C9HClNO+
180.0324	20	C8H7ClN3+
181.0031	35	C10HN2O2+
181.0392	25	C11H5N2O+
182.0114	716	C7H5ClN3O+
186.9824	75	C7H5Cl2N2+
188.9616	24	C9ClNO2+
198.9459	129	C7HCl2N2O+
200.9611	10	C10ClNO2+
223.0381	97	C9H8ClN4O+
232.0082	212	C8H5ClF2N3O+
273.0348	47	C10H8ClF2N4O+
