Mass spectrum: Diethofencarb; LC-ESI-QFT; MS2; CE: 30%; R=15000; [M+H]+
Name: Diethofencarb
Name: propan-2-yl N-(3,4-diethoxyphenyl)carbamate
Formula: C14H21NO4
Exact mass: 267.1470582
SMILES: CCOC1=C(C=C(C=C1)NC(=O)OC(C)C)OCC
InChI: InChI=1S/C14H21NO4/c1-5-17-12-8-7-11(9-13(12)18-6-2)15-14(16)19-10(3)4/h7-10H,5-6H2,1-4H3,(H,15,16)
Instrument: Exploris 240 Thermo Scientific
Instrument type: LC-ESI-QFT
Ms type: MS2
Ion mode: POSITIVE
Ionization: ESI
Fragmentation mode: HCD
Collision energy: 30 % (nominal)
Resolution: 15000
Column name: XBridge C18 3.5um, 2.1x50mm, Waters
Retention time: 8.416 min
Base peak: 226.1072
Precursor m/z: 268.1543
Precursor type: [M+H]+
m/z	relative intensity	assigned
152.0341	24	C7H6NO3+
152.0705	73	C8H10NO2+
180.1018	432	C10H14NO2+
198.076	162	C9H12NO4+
208.0968	85	C11H14NO3+
226.1072	999	C11H16NO4+
