Mass spectrum: BifenoxH; LC-ESI-QFT; MS2; CE: 150%; R=15000; [M+H]+
Name: BifenoxH
Name: Bifenox
Name: methyl 5-(2,4-dichlorophenoxy)-2-nitrobenzoate
Formula: C14H9Cl2NO5
Exact mass: 340.9857777
SMILES: COC(=O)C1=C(C=CC(=C1)OC2=C(C=C(C=C2)Cl)Cl)[N+](=O)[O-]
InChI: InChI=1S/C14H9Cl2NO5/c1-21-14(18)10-7-9(3-4-12(10)17(19)20)22-13-5-2-8(15)6-11(13)16/h2-7H,1H3
Instrument: Q Exactive Plus
Instrument type: LC-ESI-QFT
Ms type: MS2
Ion mode: POSITIVE
Ionization: ESI
Fragmentation mode: HCD
Collision energy: 150 % (nominal)
Resolution: 15000
Column name: XBridge C18 3.5um, 2.1x50mm, Waters
Retention time: 12.553 min
Base peak: 164.9845
Precursor m/z: 341.9931
Precursor type: [M+H]+
Precursor intensity: 10833477.93
m/z	relative intensity	assigned
51.0229	17	C4H3+
52.0181	33	C3H2N+
53.0022	58	C3HO+
62.0151	83	C5H2+
63.0229	146	C5H3+
65.0386	51	C5H5+
72.9839	248	C3H2Cl+
74.015	999	C6H2+
75.0229	229	C6H3+
76.0181	95	C5H2N+
82.9449	86	CHCl2+
84.9838	16	C4H2Cl+
86.0151	42	C7H2+
87.0229	62	C7H3+
88.0307	24	C7H4+
96.9839	78	C5H2Cl+
106.945	27	C3HCl2+
108.984	86	C6H2Cl+
113.0385	71	C9H5+
132.9609	15	C5H3Cl2+
137.0385	100	C11H5+
138.0464	27	C11H6+
