Mass spectrum: Propiconazole; LC-ESI-QFT; MS2; CE: 30%; R=15000; [M+H]+
Name: Propiconazole
Name: 1-[[2-(2,4-dichlorophenyl)-4-propyl-1,3-dioxolan-2-yl]methyl]-1,2,4-triazole
Formula: C15H17Cl2N3O2
Exact mass: 341.0697821
SMILES: CCCC1COC(CN2C=NC=N2)(O1)C1=C(Cl)C=C(Cl)C=C1
InChI: InChI=1S/C15H17Cl2N3O2/c1-2-3-12-7-21-15(22-12,8-20-10-18-9-19-20)13-5-4-11(16)6-14(13)17/h4-6,9-10,12H,2-3,7-8H2,1H3
Instrument: Q Exactive Plus
Instrument type: LC-ESI-QFT
Ms type: MS2
Ion mode: POSITIVE
Ionization: ESI
Fragmentation mode: HCD
Collision energy: 30 % (nominal)
Resolution: 15000
Column name: XBridge C18 3.5um, 2.1x50mm, Waters
Retention time: 11.688 min
Base peak: 342.0775
Precursor m/z: 342.0771
Precursor type: [M+H]+
Precursor intensity: 435656704.19
m/z	relative intensity	assigned
67.0544	12	C5H7+
69.0699	999	C5H9+
70.04	88	C2H4N3+
158.9764	880	C7H5Cl2+
186.9713	91	C8H5Cl2O+
204.982	156	C8H7Cl2O2+
342.0773	637	C15H18Cl2N3O2+
