Mass spectrum: Linuron; LC-ESI-QFT; MS2; CE: 120%; R=15000; [M+H]+
Name: Linuron
Name: 3-(3,4-dichlorophenyl)-1-methoxy-1-methylurea
Formula: C9H10Cl2N2O2
Exact mass: 248.0119329
SMILES: CON(C)C(=O)NC1=CC=C(Cl)C(Cl)=C1
InChI: InChI=1S/C9H10Cl2N2O2/c1-13(15-2)9(14)12-6-3-4-7(10)8(11)5-6/h3-5H,1-2H3,(H,12,14)
Instrument: Q Exactive Plus
Instrument type: LC-ESI-QFT
Ms type: MS2
Ion mode: POSITIVE
Ionization: ESI
Fragmentation mode: HCD
Collision energy: 120 % (nominal)
Resolution: 15000
Column name: XBridge C18 3.5um, 2.1x50mm, Waters
Retention time: 8.860 min
Base peak: 249.0193
Precursor m/z: 249.0192
Precursor type: [M+H]+
Precursor intensity: 425494460.33
m/z	relative intensity	assigned
58.0287	44	C2H4NO+
60.0443	17	C2H6NO+
62.0151	57	C5H2+
63.0229	302	C5H3+
64.0181	23	C4H2N+
72.9839	714	C3H2Cl+
76.0181	17	C5H2N+
78.0337	16	C5H4N+
81.0334	45	C5H5O+
82.945	330	CHCl2+
89.0258	17	C6H3N+
90.0339	450	C6H4N+
91.0416	69	C6H5N+
96.984	145	C5H2Cl+
97.9917	46	C5H3Cl+
98.9996	450	C5H4Cl+
106.945	141	C3HCl2+
108.0446	25	C6H6NO+
108.9837	20	C6H2Cl+
111.9949	19	C5H3ClN+
117.0447	70	C7H5N2+
118.0526	131	C7H6N2+
123.9949	46	C6H3ClN+
125.0027	546	C6H4ClN+
126.0105	107	C6H5ClN+
132.9606	999	C5H3Cl2+
133.9682	54	C5H4Cl2+
139.0056	22	C6H4ClN2+
139.9902	29	C3H6Cl2N2+
153.0214	247	C7H6ClN2+
160.9792	118	C6H5Cl2N+
181.0161	21	C8H6ClN2O+
