Mass spectrum: Acetochlor; LC-ESI-QFT; MS2; CE: 45%; R=15000; [M+H]+
Name: Acetochlor
Name: 2-chloro-N-(ethoxymethyl)-N-(2-ethyl-6-methylphenyl)acetamide
Formula: C14H20ClNO2
Exact mass: 269.1182566
SMILES: CCOCN(C(=O)CCl)C1=C(CC)C=CC=C1C
InChI: InChI=1S/C14H20ClNO2/c1-4-12-8-6-7-11(3)14(12)16(10-18-5-2)13(17)9-15/h6-8H,4-5,9-10H2,1-3H3
Instrument: Q Exactive Plus
Instrument type: LC-ESI-QFT
Ms type: MS2
Ion mode: POSITIVE
Ionization: ESI
Fragmentation mode: HCD
Collision energy: 45 % (nominal)
Resolution: 15000
Column name: XBridge C18 3.5um, 2.1x50mm, Waters
Retention time: 10.338 min
Base peak: 224.0838
Precursor m/z: 270.1255
Precursor type: [M+H]+
Precursor intensity: 108840014.11
m/z	relative intensity	assigned
59.0492	293	C3H7O+
76.979	23	C2H2ClO+
90.0106	121	C3H5ClN+
120.0809	14	C8H10N+
131.0857	50	C10H11+
132.081	24	C9H10N+
133.0887	117	C9H11N+
146.0965	14	C10H12N+
147.1044	20	C10H13N+
148.1121	999	C10H14N+
149.0962	109	C10H13O+
206.0732	26	C12H13ClN+
224.0839	106	C12H15ClNO+
