Mass spectrum: Alpelisib; LC-ESI-QFT; MS2; CE: 50%; R=15000; [M+H]+
Name: Alpelisib
Name: (2S)-N1-[4-methyl-5-[2-[1,1,1-tris(fluoranyl)-2-methyl-propan-2-yl]pyridin-4-yl]-1,3-thiazol-2-yl]pyrrolidine-1,2-dicarboxamide
Name: 1-N-[4-methyl-5-[2-(1,1,1-trifluoro-2-methylpropan-2-yl)pyridin-4-yl]-1,3-thiazol-2-yl]pyrrolidine-1,2-dicarboxamide
Formula: C19H22F3N5O2S
Exact mass: 441.1446306
SMILES: CC1=C(SC(=N1)NC(=O)N2CCCC2C(=O)N)C3=CC(=NC=C3)C(C)(C)C(F)(F)F
InChI: InChI=1S/C19H22F3N5O2S/c1-10-14(11-6-7-24-13(9-11)18(2,3)19(20,21)22)30-16(25-10)26-17(29)27-8-4-5-12(27)15(23)28/h6-7,9,12H,4-5,8H2,1-3H3,(H2,23,28)(H,25,26,29)
Instrument: Exploris 240 Thermo Scientific
Instrument type: LC-ESI-QFT
Ms type: MS2
Ion mode: POSITIVE
Ionization: ESI
Fragmentation mode: HCD
Collision energy: 50 % (nominal)
Resolution: 15000
Column name: XBridge C18 3.5um, 2.1x50mm, Waters
Retention time: 7.742 min
Base peak: 442.1515
Precursor m/z: 442.1519
Precursor type: [M+H]+
m/z	relative intensity	assigned
70.0651	999	C4H8N+
85.9697	29	C2NOS+
115.0867	35	C5H11N2O+
150.0373	17	C8H8NS+
154.0655	30	C11H8N+
167.0733	86	C12H9N+
168.0811	32	C4H10F2N4O+
172.0556	30	C6H6F2N4+
173.0292	181	C5H6FN4S+
185.0293	31	C11H7NS+
188.053	222	C11H10NS+
200.0528	35	C12H10NS+
201.0827	19	C12H10FN2+
203.0199	26	C11H6FNS+
203.0828	77	C6H13N5OS+
205.0361	62	C11H8FNS+
213.0476	38	C7H8FN5S+
268.0538	296	C14H10N3OS+
273.0367	620	C13H8FN3OS+
