Mass spectrum: N-N--Methylenebisacrylamide; LC-ESI-QFT; MS2; CE: 80%; R=15000; [M+H]+
Name: N-N--Methylenebisacrylamide
Name: N-[(prop-2-enoylamino)methyl]prop-2-enamide
Formula: C7H10N2O2
Exact mass: 154.0742276
SMILES: C=CC(=O)NCNC(=O)C=C
InChI: InChI=1S/C7H10N2O2/c1-3-6(10)8-5-9-7(11)4-2/h3-4H,1-2,5H2,(H,8,10)(H,9,11)
Instrument: Exploris 240 Thermo Scientific
Instrument type: LC-ESI-QFT
Ms type: MS2
Ion mode: POSITIVE
Ionization: ESI
Fragmentation mode: HCD
Collision energy: 80 % (nominal)
Resolution: 15000
Column name: XBridge C18 3.5um, 2.1x50mm, Waters
Retention time: 1.734 min
Base peak: 182.0409
Precursor m/z: 155.0815
Precursor type: [M+H]+
m/z	relative intensity	assigned
44.0131	47	CH2NO+
54.0338	32	C3H4N+
55.0178	999	C3H3O+
