Mass spectrum: tau-Fluvalinate; LC-ESI-QFT; MS2; CE: 60%; R=15000; [M+H]+
Name: tau-Fluvalinate
Name: Fluvalinate
Name: [cyano-(3-phenoxyphenyl)methyl] 2-[2-chloro-4-(trifluoromethyl)anilino]-3-methylbutanoate
Formula: C26H22ClF3N2O3
Exact mass: 502.1271049
SMILES: CC(C)C(C(=O)OC(C#N)C1=CC(=CC=C1)OC2=CC=CC=C2)NC3=C(C=C(C=C3)C(F)(F)F)Cl
InChI: InChI=1S/C26H22ClF3N2O3/c1-16(2)24(32-22-12-11-18(14-21(22)27)26(28,29)30)25(33)35-23(15-31)17-7-6-10-20(13-17)34-19-8-4-3-5-9-19/h3-14,16,23-24,32H,1-2H3
Instrument: Q Exactive Plus
Instrument type: LC-ESI-QFT
Ms type: MS2
Ion mode: POSITIVE
Ionization: ESI
Fragmentation mode: HCD
Collision energy: 60 % (nominal)
Resolution: 15000
Column name: XBridge C18 3.5um, 2.1x50mm, Waters
Retention time: 16.348 min
Base peak: 503.1345
Precursor m/z: 503.1344
Precursor type: [M+H]+
Precursor intensity: 56663198.69
m/z	relative intensity	assigned
95.0491	17	C6H7O+
152.0619	83	C12H8+
153.0697	172	C12H9+
168.0568	45	C12H8O+
169.0646	10	C12H9O+
180.0806	178	C13H10N+
181.0645	999	C13H9O+
190.0648	15	C14H8N+
205.998	11	C8H4ClF3N+
206.0597	17	C14H8NO+
207.0677	63	C14H9NO+
208.0755	29	C14H10NO+
250.0603	21	C11H12ClF3N+
