Mass spectrum: Profenofos; LC-ESI-QFT; MS2; CE: 30%; R=15000; [M+H]+
Name: Profenofos
Name: 4-bromo-2-chloro-1-[ethoxy(propylsulfanyl)phosphoryl]oxybenzene
Formula: C11H15BrClO3PS
Exact mass: 371.9351418
SMILES: CCCSP(=O)(OCC)OC1=C(C=C(C=C1)Br)Cl
InChI: InChI=1S/C11H15BrClO3PS/c1-3-7-18-17(14,15-4-2)16-11-6-5-9(12)8-10(11)13/h5-6,8H,3-4,7H2,1-2H3
Instrument: Exploris 240 Thermo Scientific
Instrument type: LC-ESI-QFT
Ms type: MS2
Ion mode: POSITIVE
Ionization: ESI
Fragmentation mode: HCD
Collision energy: 30 % (nominal)
Resolution: 15000
Column name: XBridge C18 3.5um, 2.1x50mm, Waters
Retention time: 13.098 min
Base peak: 374.9398
Precursor m/z: 372.9424
Precursor type: [M+H]+
m/z	relative intensity	assigned
114.9611	11	H4O3PS+
187.9686	10	C6H5O3PS+
206.9206	15	C6H5BrClO+
222.8975	16	C5H5BrOPS+
302.8639	999	C6H6BrClO3PS+
330.8949	26	C8H10BrClO3PS+
344.911	107	C9H12BrClO3PS+
