Mass spectrum: Dicamba; LC-ESI-QFT; MS2; CE: 120%; R=15000; [M+H]+
Name: Dicamba
Name: 3,6-dichloro-2-methoxybenzoic acid
Formula: C8H6Cl2O3
Exact mass: 219.9693994
SMILES: COC1=C(Cl)C=CC(Cl)=C1C(O)=O
InChI: InChI=1S/C8H6Cl2O3/c1-13-7-5(10)3-2-4(9)6(7)8(11)12/h2-3H,1H3,(H,11,12)
Instrument: Q Exactive Plus
Instrument type: LC-ESI-QFT
Ms type: MS2
Ion mode: POSITIVE
Ionization: ESI
Fragmentation mode: HCD
Collision energy: 120 % (nominal)
Resolution: 15000
Column name: XBridge C18 3.5um, 2.1x50mm, Waters
Retention time: 6.184 min
Base peak: 164.9846
Precursor m/z: 220.9767
Precursor type: [M+H]+
Precursor intensity: 2073491.22
m/z	relative intensity	assigned
72.9839	328	C3H2Cl+
74.0151	98	C6H2+
75.0229	57	C6H3+
90.0101	227	C6H2O+
96.984	999	C5H2Cl+
108.9843	88	C6H2Cl+
114.9946	112	C5H4ClO+
124.9788	325	C6H2ClO+
131.953	88	C5H2Cl2+
152.9736	176	C7H2ClO2+
159.9478	379	C6H2Cl2O+
