Mass spectrum: Isoxaflutole; LC-ESI-QFT; MS2; CE: 120%; R=15000; [M+H]+
Name: Isoxaflutole
Name: (5-cyclopropyl-1,2-oxazol-4-yl)-[2-methylsulfonyl-4-(trifluoromethyl)phenyl]methanone
Formula: C15H12F3NO4S
Exact mass: 359.0439135
SMILES: CS(=O)(=O)C1=C(C=CC(=C1)C(F)(F)F)C(=O)C1=C(ON=C1)C1CC1
InChI: InChI=1S/C15H12F3NO4S/c1-24(21,22)12-6-9(15(16,17)18)4-5-10(12)13(20)11-7-19-23-14(11)8-2-3-8/h4-8H,2-3H2,1H3
Instrument: Q Exactive Plus
Instrument type: LC-ESI-QFT
Ms type: MS2
Ion mode: POSITIVE
Ionization: ESI
Fragmentation mode: HCD
Collision energy: 120 % (nominal)
Resolution: 15000
Column name: XBridge C18 3.5um, 2.1x50mm, Waters
Retention time: 7.750 min
Base peak: 360.0514
Precursor m/z: 360.0512
Precursor type: [M+H]+
Precursor intensity: 182019318.31
m/z	relative intensity	assigned
50.0151	77	C4H2+
51.0042	63	CHF2+
51.0229	145	C4H3+
53.0386	38	C4H5+
57.0135	135	C3H2F+
59.9664	41	COS+
62.0152	45	C5H2+
62.97	39	CFS+
62.9899	126	CH3OS+
63.0229	496	C5H3+
68.9793	221	C3HS+
68.9947	39	CF3+
70.0213	273	C4H3F+
71.0292	34	C4H4F+
74.0151	82	C6H2+
75.004	193	C3HF2+
75.0229	927	C6H3+
77.0021	28	C5HO+
77.0194	22	C3H3F2+
77.0384	18	C6H5+
79.0178	115	C5H3O+
81.0136	44	C5H2F+
82.0214	19	C5H3F+
83.0292	435	C5H4F+
89.0386	58	C7H5+
90.9991	24	C3HF2O+
94.0214	316	C6H3F+
94.995	632	C5H3S+
95.0491	92	C6H7O+
96.0373	22	C6H5F+
97.0107	65	C5H5S+
98.0154	29	C8H2+
99.0041	35	C5HF2+
99.0233	164	C8H3+
101.0198	954	C5H3F2+
108.0028	80	C6H4S+
109.0449	377	C7H6F+
110.0162	59	C6H3FO+
111.0241	25	C6H4FO+
112.012	50	C6H2F2+
112.0319	257	C6H5FO+
113.0197	118	C6H3F2+
113.0397	24	C6H6FO+
113.9934	100	C5H3FS+
114.0274	58	C6H4F2+
115.0013	167	C5H4FS+
119.0104	177	C5H2F3+
120.0181	334	C5H3F3+
121.0258	58	C5H4F3+
125.0198	999	C7H3F2+
127.0354	259	C7H5F2+
129.0151	43	C6H3F2O+
131.0305	35	C6H5F2O+
132.0181	638	C6H3F3+
141.0147	216	C7H3F2O+
141.026	166	C3H8FNO2S+
142.0225	26	C7H4F2O+
143.0104	839	C7H2F3+
144.0182	265	C7H3F3+
144.9923	26	C8HO3+
145.0259	204	C7H4F3+
149.0213	27	C6H4F3O+
156.9918	177	C7H3F2S+
160.0131	86	C7H3F3O+
161.0208	105	C7H4F3O+
162.0286	367	C7H5F3O+
163.9902	193	C6H3F3S+
174.0157	36	C4H8F2O3S+
176.0079	115	C7H3F3O2+
