Mass spectrum: N-Desmethylrosuvastatin; LC-ESI-QFT; MS2; CE: 90%; R=17500; [M+H]+
Name: N-Desmethylrosuvastatin
Name: 7-[4-(4-fluorophenyl)-2-(methanesulfonamido)-6-propan-2-ylpyrimidin-5-yl]-3,5-dihydroxyhept-6-enoic acid
Formula: C21H26FN3O6S
Exact mass: 467.1526348
SMILES: CC(C)C1=NC(=NC(=C1C=CC(CC(CC(=O)O)O)O)C2=CC=C(C=C2)F)NS(=O)(=O)C
InChI: InChI=1S/C21H26FN3O6S/c1-12(2)19-17(9-8-15(26)10-16(27)11-18(28)29)20(13-4-6-14(22)7-5-13)24-21(23-19)25-32(3,30)31/h4-9,12,15-16,26-27H,10-11H2,1-3H3,(H,28,29)(H,23,24,25)
Instrument: Exploris 240 Orbitrap Thermo Scientific
Instrument type: LC-ESI-QFT
Ms type: MS2
Ion mode: POSITIVE
Ionization: ESI
Fragmentation mode: HCD
Collision energy: 90 % (nominal)
Resolution: 17500
Column name: XBridge C18 3.5um, 2.1x50mm, Waters
Retention time: 5.375 min
Base peak: 468.1593
Precursor m/z: 468.1599
Precursor type: [M+H]+
m/z	relative intensity	assigned
67.0542	56	C5H7+
68.0494	47	C4H6N+
69.0336	74	C4H5O+
70.0654	33	C4H8N+
71.0129	61	C3H3O2+
77.0387	59	C6H5+
79.0543	204	C6H7+
80.0495	56	C5H6N+
91.0543	65	C7H7+
93.0447	111	C5H5N2+
93.07	52	C7H9+
94.0653	77	C6H8N+
95.0608	49	C5H7N2+
95.0856	35	C7H11+
103.0546	42	C8H7+
105.0449	51	C6H5N2+
106.0653	75	C7H8N+
107.0729	52	C7H9N+
108.0811	80	C7H10N+
109.0451	97	C7H6F+
116.0497	30	C8H6N+
118.0652	65	C8H8N+
119.0607	91	C7H7N2+
120.0809	68	C8H10N+
121.0765	65	C7H9N2+
122.0399	401	C7H5FN+
130.0651	64	C9H8N+
132.0682	50	C8H8N2+
133.0447	999	C9H6F+
135.092	86	C8H11N2+
146.0533	82	C10H7F+
147.0358	210	C8H4FN2+
147.0602	154	C10H8F+
147.0918	53	C9H11N2+
148.0557	131	C9H7FN+
155.0606	64	C4H13NO3S+
158.0402	72	C10H5FN+
159.0609	80	C2H11N2O6+
162.072	64	C10H9FN+
165.0697	91	C13H9+
171.0616	56	C3H11N2O6+
172.0551	172	C3H11FN3O2S+
173.0506	64	C7H11NO2S+
174.0725	154	C2H12N3O6+
175.0676	168	C4H14FNO3S+
183.0605	163	C13H8F+
185.0621	176	C4H12FN3O2S+
186.0718	184	C6H15FO3S+
187.0639	194	C2H16FO6S+
188.0877	84	C6H17FO3S+
198.0713	146	C13H9FN+
200.088	241	C4H14N3O6+
201.07	68	C16H9+
203.0859	61	C16H11+
214.0773	241	C9H14N2O2S+
214.103	275	C14H13FN+
215.086	73	C17H11+
215.1108	33	C14H14FN+
223.0669	80	C14H8FN2+
224.0754	83	C8H15FNO3S+
225.0821	90	C8H16FNO3S+
226.1011	80	C7H17FN3O2S+
227.0845	289	C10H15N2O2S+
230.1086	92	C13H13FN3+
238.0786	77	C16H11FO+
240.0929	699	C11H16N2O2S+
241.1006	357	C11H17N2O2S+
243.1171	67	C19H15+
244.1245	102	C14H15FN3+
252.0936	161	C20H12+
254.1094	259	C9H19FN2O3S+
