Mass spectrum: bisFBSI; LC-ESI-QFT; MS2; CE: 150%; R=17500; [M-H]-
Name: bisFBSI
Name: Bis(1,1,2,2,3,3,4,4,4-nonafluoro-1-butanesulfonyl)imide
Name: 1,1,2,2,3,3,4,4,4-nonafluoro-N-(1,1,2,2,3,3,4,4,4-nonafluorobutylsulfonyl)butane-1-sulfonamide
Formula: C8HF18NO4S2
Exact mass: 580.905957472
SMILES: C(C(C(F)(F)S(=O)(=O)NS(=O)(=O)C(C(C(C(F)(F)F)(F)F)(F)F)(F)F)(F)F)(C(F)(F)F)(F)F
InChI: InChI=1S/C8HF18NO4S2/c9-1(10,5(17,18)19)3(13,14)7(23,24)32(28,29)27-33(30,31)8(25,26)4(15,16)2(11,12)6(20,21)22/h27H
Instrument: Exploris 240 Orbitrap Thermo Scientific
Instrument type: LC-ESI-QFT
Ms type: MS2
Ion mode: NEGATIVE
Ionization: ESI
Fragmentation mode: HCD
Collision energy: 150 % (nominal)
Resolution: 17500
Column name: XBridge C18 3.5um, 2.1x50mm, Waters
Retention time: 10.395 min
Base peak: 579.8985
Precursor m/z: 579.8987
Precursor type: [M-H]-
m/z	relative intensity	assigned
61.9705	7	NOS-
63.9624	179	O2S-
77.9655	999	NO2S-
82.9609	14	FO2S-
