Mass spectrum: Pyraflufen-ethyl; LC-ESI-QFT; MS2; CE: 15%; R=15000; [M+H]+
Name: Pyraflufen-ethyl
Name: ethyl 2-[2-chloro-5-[4-chloro-5-(difluoromethoxy)-1-methylpyrazol-3-yl]-4-fluorophenoxy]acetate
Formula: C15H13Cl2F3N2O4
Exact mass: 412.0204469
SMILES: CCOC(=O)COC1=C(C=C(C(=C1)C2=NN(C(=C2Cl)OC(F)F)C)F)Cl
InChI: InChI=1S/C15H13Cl2F3N2O4/c1-3-24-11(23)6-25-10-4-7(9(18)5-8(10)16)13-12(17)14(22(2)21-13)26-15(19)20/h4-5,15H,3,6H2,1-2H3
Instrument: Exploris 240 Thermo Scientific
Instrument type: LC-ESI-QFT
Ms type: MS2
Ion mode: POSITIVE
Ionization: ESI
Fragmentation mode: HCD
Collision energy: 15 % (nominal)
Resolution: 15000
Column name: XBridge C18 3.5um, 2.1x50mm, Waters
Retention time: 11.460 min
Base peak: 413.0276
Precursor m/z: 413.0277
Precursor type: [M+H]+
m/z	relative intensity	assigned
338.991	44	C12H8Cl2F3N2O2+
413.0275	999	C15H14Cl2F3N2O4+
