Mass spectrum: 8-2-FTCA; LC-ESI-QFT; MS2; CE: 60%; R=17500; [M-H]-
Name: 8-2-FTCA
Name: Decanoic acid, 3,3,4,4,5,5,6,6,7,7,8,8,9,9,10,10,10-heptadecafluoro-
Name: 3,3,4,4,5,5,6,6,7,7,8,8,9,9,10,10,10-heptadecafluorodecanoic acid
Formula: C10H3F17O2
Exact mass: 477.986159076
SMILES: C(C(=O)O)C(C(C(C(C(C(C(C(F)(F)F)(F)F)(F)F)(F)F)(F)F)(F)F)(F)F)(F)F
InChI: InChI=1S/C10H3F17O2/c11-3(12,1-2(28)29)4(13,14)5(15,16)6(17,18)7(19,20)8(21,22)9(23,24)10(25,26)27/h1H2,(H,28,29)
Instrument: Exploris 240 Orbitrap Thermo Scientific
Instrument type: LC-ESI-QFT
Ms type: MS2
Ion mode: NEGATIVE
Ionization: ESI
Fragmentation mode: HCD
Collision energy: 60 % (nominal)
Resolution: 17500
Column name: XBridge C18 3.5um, 2.1x50mm, Waters
Retention time: 13.905 min
Base peak: 325.1842
Precursor m/z: 476.9789
Precursor type: [M-H]-
m/z	relative intensity	assigned
62.9888	999	CFO2-
68.996	145	CF3-
92.9958	191	C3F3-
118.993	217	C2F5-
192.9897	213	C5F7-
242.9863	282	C6F9-
342.9792	195	C8F13-
392.9754	625	C9F15-
