Mass spectrum: 5-Chloro-2-methyl-3(2H)-isothiazolone; LC-ESI-QFT; MS2; CE: 150%; R=15000; [M+H]+
Name: 5-Chloro-2-methyl-3(2H)-isothiazolone
Name: 5-Chloro-2-methyl-4-isothiazolin-3-one
Name: 5-chloro-2-methyl-1,2-thiazol-3-one
Formula: C4H4ClNOS
Exact mass: 148.9702124
SMILES: CN1SC(Cl)=CC1=O
InChI: InChI=1S/C4H4ClNOS/c1-6-4(7)2-3(5)8-6/h2H,1H3
Instrument: Q Exactive Plus
Instrument type: LC-ESI-QFT
Ms type: MS2
Ion mode: POSITIVE
Ionization: ESI
Fragmentation mode: HCD
Collision energy: 150 % (nominal)
Resolution: 15000
Column name: XBridge C18 3.5um, 2.1x50mm, Waters
Retention time: 3.393 min
Base peak: 149.9776
Precursor m/z: 149.9775
Precursor type: [M+H]+
Precursor intensity: 734386484.33
m/z	relative intensity	assigned
52.0182	15	C3H2N+
56.9794	29	C2HS+
57.9872	78	C2H2S+
58.0288	194	C2H4NO+
58.995	66	C2H3S+
59.9663	17	COS+
59.9902	17	CH2NS+
60.984	25	C2H2Cl+
61.9792	28	CHClN+
62.0059	14	CH4NS+
67.0179	94	C4H3O+
68.9794	33	C3HS+
69.9746	21	C2NS+
69.9871	10	C3H2S+
70.995	58	C3H3S+
71.9902	22	C2H2NS+
72.0028	12	C3H4S+
72.9841	16	C3H2Cl+
73.9793	30	C2HClN+
74.0058	24	C2H4NS+
74.9997	18	C3H4Cl+
75.971	15	C2HClO+
78.9404	46	CClS+
79.9483	26	CHClS+
82.9824	100	C3HNS+
83.9665	128	C3OS+
84.9742	23	C3HOS+
86.006	18	C3H4NS+
86.9633	999	C3ClO+
90.9404	25	C2ClS+
92.9561	13	C2H2ClS+
95.9903	31	C4H2NS+
102.9403	20	C3ClS+
106.9592	27	C2H2ClNS+
118.9356	15	C3ClOS+
134.9542	39	C3H2ClNOS+
