Mass spectrum: 4-Desmethyltrimethoprim; LC-ESI-QFT; MS2; CE: 90%; R=17500; [M+H]+
Name: 4-Desmethyltrimethoprim
Name: 4-((2,4-Diaminopyrimidin-5-yl)methyl)-2,6-dimethoxyphenol
Name: 4-[(2,4-diaminopyrimidin-5-yl)methyl]-2,6-dimethoxyphenol
Formula: C13H16N4O3
Exact mass: 276.1222404
SMILES: COC1=CC(=CC(=C1O)OC)CC2=CN=C(N=C2N)N
InChI: InChI=1S/C13H16N4O3/c1-19-9-4-7(5-10(20-2)11(9)18)3-8-6-16-13(15)17-12(8)14/h4-6,18H,3H2,1-2H3,(H4,14,15,16,17)
Instrument: Exploris 240 Orbitrap Thermo Scientific
Instrument type: LC-ESI-QFT
Ms type: MS2
Ion mode: POSITIVE
Ionization: ESI
Fragmentation mode: HCD
Collision energy: 90 % (nominal)
Resolution: 17500
Column name: XBridge C18 3.5um, 2.1x50mm, Waters
Retention time: 2.197 min
Base peak: 277.1293
Precursor m/z: 277.1295
Precursor type: [M+H]+
m/z	relative intensity	assigned
54.0338	27	C3H4N+
60.0555	13	CH6N3+
68.0369	16	C3H4N2+
81.0447	473	C4H5N2+
83.0478	10	C3H5N3+
103.0541	11	C8H7+
106.04	20	C5H4N3+
110.0587	121	C4H6N4+
111.0665	30	C4H7N4+
123.0665	999	C5H7N4+
124.0744	50	C5H8N4+
145.0763	16	C9H9N2+
146.0714	14	C8H8N3+
146.0839	6	C9H10N2+
147.0662	15	C7H7N4+
148.0743	98	C7H8N4+
149.0822	29	C7H9N4+
151.0385	33	C8H7O3+
161.0826	19	C8H9N4+
163.0974	19	C8H11N4+
170.0721	16	C10H8N3+
173.0831	30	C11H11NO+
187.098	149	C10H11N4+
188.1056	17	C10H12N4+
191.0925	18	C9H11N4O+
201.0776	10	C10H9N4O+
203.0924	22	C10H11N4O+
215.0923	25	C11H11N4O+
216.1006	10	C11H12N4O+
219.0878	285	C10H11N4O2+
231.0877	74	C11H11N4O2+
233.1043	30	C11H13N4O2+
245.1031	21	C12H13N4O2+
259.0825	33	C12H11N4O3+
261.0983	315	C12H13N4O3+
