Mass spectrum: Eriodictyol; LC-ESI-QFT; MS2; CE: 60%; R=17500; [M+H]+
Name: Eriodictyol
Name: (+/-)-Eriodictyol
Name: 2-(3,4-dihydroxyphenyl)-5,7-dihydroxy-2,3-dihydrochromen-4-one
Formula: C15H12O6
Exact mass: 288.0633881
SMILES: C1C(OC2=CC(=CC(=C2C1=O)O)O)C3=CC(=C(C=C3)O)O
InChI: InChI=1S/C15H12O6/c16-8-4-11(19)15-12(20)6-13(21-14(15)5-8)7-1-2-9(17)10(18)3-7/h1-5,13,16-19H,6H2
Instrument: Exploris 240 Orbitrap Thermo Scientific
Instrument type: LC-ESI-QFT
Ms type: MS2
Ion mode: POSITIVE
Ionization: ESI
Fragmentation mode: HCD
Collision energy: 60 % (nominal)
Resolution: 17500
Column name: XBridge C18 3.5um, 2.1x50mm, Waters
Retention time: 5.359 min
Base peak: 289.0705
Precursor m/z: 289.0707
Precursor type: [M+H]+
m/z	relative intensity	assigned
67.0179	18	C4H3O+
68.9972	20	C3HO2+
69.0337	5	C4H5O+
89.0386	23	C7H5+
93.0335	14	C6H5O+
97.0283	4	C5H5O2+
107.0492	21	C7H7O+
111.008	21	C5H3O3+
111.0442	19	C6H7O2+
117.0335	94	C8H5O+
123.0442	45	C7H7O2+
135.044	161	C8H7O2+
139.0389	21	C7H7O3+
145.0284	158	C9H5O2+
151.0388	10	C8H7O3+
153.0183	999	C7H5O4+
159.0444	14	C10H7O2+
163.039	352	C9H7O3+
179.0339	22	C9H7O4+
187.0394	6	C11H7O3+
205.0498	8	C11H9O4+
