Mass spectrum: 3-(3,5-Dichlorophenyl)-N-(1-methylethyl)-2,4-dioxo-1-imidazolidinecarboxamide; LC-ESI-QFT; MS2; CE: 120%; R=15000; [M+H]+
Name: 3-(3,5-Dichlorophenyl)-N-(1-methylethyl)-2,4-dioxo-1-imidazolidinecarboxamide
Name: Iprodione
Name: 3-(3,5-dichlorophenyl)-2,4-dioxo-N-propan-2-ylimidazolidine-1-carboxamide
Formula: C13H13Cl2N3O3
Exact mass: 329.0333966
SMILES: CC(C)NC(=O)N1CC(=O)N(C1=O)C1=CC(Cl)=CC(Cl)=C1
InChI: InChI=1S/C13H13Cl2N3O3/c1-7(2)16-12(20)17-6-11(19)18(13(17)21)10-4-8(14)3-9(15)5-10/h3-5,7H,6H2,1-2H3,(H,16,20)
Instrument: Q Exactive Plus
Instrument type: LC-ESI-QFT
Ms type: MS2
Ion mode: POSITIVE
Ionization: ESI
Fragmentation mode: HCD
Collision energy: 120 % (nominal)
Resolution: 15000
Column name: XBridge C18 3.5um, 2.1x50mm, Waters
Retention time: 10.931 min
Base peak: 164.9846
Precursor m/z: 330.0407
Precursor type: [M+H]+
Precursor intensity: 12843620.78
m/z	relative intensity	assigned
51.0229	42	C4H3+
56.0131	999	C2H2NO+
63.0231	15	C5H3+
65.0385	18	C5H5+
74.0151	106	C6H2+
75.0229	173	C6H3+
84.984	28	C4H2Cl+
86.9633	106	C3ClO+
86.9997	16	C4H4Cl+
90.034	64	C6H4N+
92.0494	21	C6H6N+
98.9995	27	C5H4Cl+
102.034	50	C7H4N+
104.0495	85	C7H6N+
108.984	393	C6H2Cl+
110.9995	34	C6H4Cl+
112.0075	55	C6H5Cl+
120.0443	35	C7H6NO+
123.995	96	C6H3ClN+
125.0028	179	C6H4ClN+
127.0183	362	C6H6ClN+
128.0023	27	C6H5ClO+
129.0102	110	C6H6ClO+
130.0403	63	C7H4N3+
132.0443	22	C8H6NO+
132.9606	113	C5H3Cl2+
138.0105	397	C7H5ClN+
139.0057	126	C6H4ClN2+
139.0182	120	C7H6ClN+
144.9603	62	C6H3Cl2+
145.9682	112	C6H4Cl2+
152.9976	170	C7H4ClNO+
160.9791	38	C6H5Cl2N+
162.971	40	C6H5Cl2O+
172.9667	169	C6H3Cl2N2+
