Mass spectrum: Lercanidipine; LC-ESI-QFT; MS2; CE: 75%; R=17500; [M+H]+
Name: Lercanidipine
Name: 5-O-[1-[3,3-diphenylpropyl(methyl)amino]-2-methylpropan-2-yl] 3-O-methyl 2,6-dimethyl-4-(3-nitrophenyl)-1,4-dihydropyridine-3,5-dicarboxylate
Formula: C36H41N3O6
Exact mass: 611.299536032
SMILES: CC1=C(C(C(=C(N1)C)C(=O)OC(C)(C)CN(C)CCC(C2=CC=CC=C2)C3=CC=CC=C3)C4=CC(=CC=C4)[N+](=O)[O-])C(=O)OC
InChI: InChI=1S/C36H41N3O6/c1-24-31(34(40)44-6)33(28-18-13-19-29(22-28)39(42)43)32(25(2)37-24)35(41)45-36(3,4)23-38(5)21-20-30(26-14-9-7-10-15-26)27-16-11-8-12-17-27/h7-19,22,30,33,37H,20-21,23H2,1-6H3
Instrument: Exploris 240 Orbitrap Thermo Scientific
Instrument type: LC-ESI-QFT
Ms type: MS2
Ion mode: POSITIVE
Ionization: ESI
Fragmentation mode: HCD
Collision energy: 75 % (nominal)
Resolution: 17500
Column name: XBridge C18 3.5um, 2.1x50mm, Waters
Retention time: 11.139 min
Base peak: 132.9582
Precursor m/z: 612.3068
Precursor type: [M+H]+
m/z	relative intensity	assigned
65.0387	16	C5H5+
67.0179	84	C4H3O+
70.065	83	C4H8N+
71.0731	30	C4H9N+
84.0807	17	C5H10N+
85.0888	12	C5H11N+
86.0963	81	C5H12N+
91.0542	999	C7H7+
98.0966	32	C6H12N+
100.112	260	C6H14N+
115.0542	161	C9H7+
117.0698	223	C9H9+
152.0619	211	C12H8+
165.0696	244	C13H9+
166.0777	77	C13H10+
167.0855	641	C13H11+
168.0808	24	C12H10N+
180.0805	39	C13H10N+
181.0891	27	C13H11N+
182.0966	24	C13H12N+
196.0755	16	C13H10NO+
208.0757	74	C14H10NO+
209.0837	93	C14H11NO+
210.0922	134	C14H12NO+
211.0994	30	C14H13NO+
226.0865	136	C14H12NO2+
236.0712	48	C15H10NO2+
237.0783	19	C15H11NO2+
254.0808	89	C15H12NO3+
267.0887	16	C16H13NO3+
268.0969	68	C16H14NO3+
269.1046	54	C16H15NO3+
