Mass spectrum: Hesperitin; LC-ESI-QFT; MS2; CE: 75%; R=17500; [M-H]-
Name: Hesperitin
Name: 5,7-dihydroxy-2-(3-hydroxy-4-methoxyphenyl)-3,4-dihydro-2H-1-benzopyran-4-one
Name: 5,7-dihydroxy-2-(3-hydroxy-4-methoxyphenyl)-2,3-dihydrochromen-4-one
Formula: C16H14O6
Exact mass: 302.0790382
SMILES: COC1=C(C=C(C=C1)C2CC(=O)C3=C(C=C(C=C3O2)O)O)O
InChI: InChI=1S/C16H14O6/c1-21-13-3-2-8(4-10(13)18)14-7-12(20)16-11(19)5-9(17)6-15(16)22-14/h2-6,14,17-19H,7H2,1H3
Instrument: Exploris 240 Orbitrap Thermo Scientific
Instrument type: LC-ESI-QFT
Ms type: MS2
Ion mode: NEGATIVE
Ionization: ESI
Fragmentation mode: HCD
Collision energy: 75 % (nominal)
Resolution: 17500
Column name: XBridge C18 3.5um, 2.1x50mm, Waters
Retention time: 6.311 min
Base peak: 301.0717
Precursor m/z: 301.0718
Precursor type: [M-H]-
m/z	relative intensity	assigned
57.0346	23	C3H5O-
63.0241	130	C5H3-
65.0033	455	C4HO-
80.0268	215	C5H4O-
83.0139	244	C4H3O2-
96.0221	28	C5H4O2-
107.0139	399	C6H3O2-
108.0217	999	C6H4O2-
120.0219	19	C7H4O2-
121.0299	18	C7H5O2-
123.0087	13	C6H3O3-
124.0163	56	C6H4O3-
125.0246	30	C6H5O3-
133.0293	45	C8H5O2-
134.0374	385	C8H6O2-
135.0452	243	C8H7O2-
136.0166	673	C7H4O3-
151.0037	368	C7H3O4-
152.0113	18	C7H4O4-
158.0369	66	C10H6O2-
164.0115	296	C8H4O4-
165.0192	19	C8H5O4-
171.0454	48	C11H7O2-
172.0533	34	C11H8O2-
173.0244	26	C10H5O3-
174.0318	60	C10H6O3-
175.0397	49	C10H7O3-
176.0477	25	C10H8O3-
177.0196	49	C9H5O4-
185.0607	23	C12H9O2-
188.0485	17	C11H8O3-
198.0331	23	C12H6O3-
199.04	102	C12H7O3-
200.0483	31	C12H8O3-
201.0193	78	C11H5O4-
202.0275	19	C11H6O4-
213.0564	43	C13H9O3-
214.0639	28	C13H10O3-
215.036	34	C12H7O4-
241.0513	35	C14H9O4-
243.0306	12	C13H7O5-
285.0407	79	C15H9O6-
