Mass spectrum: Hesperitin; LC-ESI-QFT; MS2; CE: 120%; R=17500; [M+H]+
Name: Hesperitin
Name: 5,7-dihydroxy-2-(3-hydroxy-4-methoxyphenyl)-3,4-dihydro-2H-1-benzopyran-4-one
Name: 5,7-dihydroxy-2-(3-hydroxy-4-methoxyphenyl)-2,3-dihydrochromen-4-one
Formula: C16H14O6
Exact mass: 302.0790382
SMILES: COC1=C(C=C(C=C1)C2CC(=O)C3=C(C=C(C=C3O2)O)O)O
InChI: InChI=1S/C16H14O6/c1-21-13-3-2-8(4-10(13)18)14-7-12(20)16-11(19)5-9(17)6-15(16)22-14/h2-6,14,17-19H,7H2,1H3
Instrument: Exploris 240 Orbitrap Thermo Scientific
Instrument type: LC-ESI-QFT
Ms type: MS2
Ion mode: POSITIVE
Ionization: ESI
Fragmentation mode: HCD
Collision energy: 120 % (nominal)
Resolution: 17500
Column name: XBridge C18 3.5um, 2.1x50mm, Waters
Retention time: 6.321 min
Base peak: 303.086
Precursor m/z: 303.0863
Precursor type: [M+H]+
m/z	relative intensity	assigned
51.023	27	C4H3+
53.0387	31	C4H5+
55.0179	106	C3H3O+
63.0229	152	C5H3+
65.0386	165	C5H5+
66.0465	15	C5H6+
67.0178	137	C4H3O+
68.9971	440	C3HO2+
69.0335	269	C4H5O+
77.0385	76	C6H5+
78.0464	239	C6H6+
79.0178	60	C5H3O+
79.0542	19	C6H7+
83.0128	32	C4H3O2+
89.0385	999	C7H5+
91.0542	51	C7H7+
93.0336	15	C6H5O+
94.0412	57	C6H6O+
95.0494	26	C6H7O+
97.0283	66	C5H5O2+
103.0543	19	C8H7+
105.0337	85	C7H5O+
106.0414	71	C7H6O+
110.0366	13	C6H6O2+
115.0545	39	C9H7+
117.0336	59	C8H5O+
122.0367	17	C7H6O2+
134.0362	90	C8H6O2+
139.054	13	C11H7+
153.0181	187	C7H5O4+
