Mass spectrum: 1,7-Dimethyluric acid; LC-ESI-QFT; MS2; CE: 15%; R=17500; [M-H]-
Name: 1,7-Dimethyluric acid
Name: 1,7-dimethyl-3,9-dihydropurine-2,6,8-trione
Formula: C7H8N4O3
Exact mass: 196.0596401
SMILES: CN1C2=C(NC1=O)NC(=O)N(C2=O)C
InChI: InChI=1S/C7H8N4O3/c1-10-3-4(8-6(10)13)9-7(14)11(2)5(3)12/h1-2H3,(H,8,13)(H,9,14)
Instrument: Exploris 240 Orbitrap Thermo Scientific
Instrument type: LC-ESI-QFT
Ms type: MS2
Ion mode: NEGATIVE
Ionization: ESI
Fragmentation mode: HCD
Collision energy: 15 % (nominal)
Resolution: 17500
Column name: XBridge C18 3.5um, 2.1x50mm, Waters
Retention time: 2.320 min
Base peak: 195.0524
Precursor m/z: 195.0524
Precursor type: [M-H]-
m/z	relative intensity	assigned
180.0292	8	C6H4N4O3-
195.0524	999	C7H7N4O3-
