Mass spectrum: Isavuconazole; LC-ESI-QFT; MS2; CE: 50%; R=15000; [M+H]+
Name: Isavuconazole
Name: 4-[2-[(2R,3R)-3-[2,5-bis(fluoranyl)phenyl]-3-oxidanyl-4-(1,2,4-triazol-1-yl)butan-2-yl]-1,3-thiazol-4-yl]benzenecarbonitrile
Name: 4-[2-[3-(2,5-difluorophenyl)-3-hydroxy-4-(1,2,4-triazol-1-yl)butan-2-yl]-1,3-thiazol-4-yl]benzonitrile
Formula: C22H17F2N5OS
Exact mass: 437.1121876
SMILES: CC(C1=NC(=CS1)C2=CC=C(C=C2)C#N)C(CN3C=NC=N3)(C4=C(C=CC(=C4)F)F)O
InChI: InChI=1S/C22H17F2N5OS/c1-14(21-28-20(10-31-21)16-4-2-15(9-25)3-5-16)22(30,11-29-13-26-12-27-29)18-8-17(23)6-7-19(18)24/h2-8,10,12-14,30H,11H2,1H3
Instrument: Exploris 240 Thermo Scientific
Instrument type: LC-ESI-QFT
Ms type: MS2
Ion mode: POSITIVE
Ionization: ESI
Fragmentation mode: HCD
Collision energy: 50 % (nominal)
Resolution: 15000
Column name: XBridge C18 3.5um, 2.1x50mm, Waters
Retention time: 10.216 min
Base peak: 438.1191
Precursor m/z: 438.1195
Precursor type: [M+H]+
m/z	relative intensity	assigned
70.0399	75	C2H4N3+
82.04	41	C3H4N3+
83.0477	27	C3H5N3+
101.0196	24	C5H3F2+
107.0293	18	C7H4F+
116.0494	100	C8H6N+
127.0353	999	C7H5F2+
155.0303	10	C8H5F2O+
160.0215	81	C9H6NS+
161.0167	19	C3H4FN5S+
200.0406	42	C11H8N2S+
202.0777	99	C16H10+
203.083	26	C6H13N5OS+
213.0481	162	C12H9N2S+
227.0639	10	C13H11N2S+
