Mass spectrum: 4-(Diethylamino)benzaldehyde; LC-ESI-QFT; MS2; CE: 60%; R=15000; [M+H]+
Name: 4-(Diethylamino)benzaldehyde
Formula: C11H15NO
Exact mass: 177.1153641
SMILES: CCN(CC)C1=CC=C(C=C1)C=O
InChI: InChI=1S/C11H15NO/c1-3-12(4-2)11-7-5-10(9-13)6-8-11/h5-9H,3-4H2,1-2H3
Instrument: Exploris 240 Thermo Scientific
Instrument type: LC-ESI-QFT
Ms type: MS2
Ion mode: POSITIVE
Ionization: ESI
Fragmentation mode: HCD
Collision energy: 60 % (nominal)
Resolution: 15000
Column name: XBridge C18 3.5um, 2.1x50mm, Waters
Retention time: 7.291 min
Base peak: 178.1225
Precursor m/z: 178.1226
Precursor type: [M+H]+
m/z	relative intensity	assigned
79.0543	19	C6H7+
94.0652	88	C6H8N+
106.0652	172	C7H8N+
120.0808	122	C8H10N+
121.0886	196	C8H11N+
122.0965	367	C8H12N+
134.0601	477	C8H8NO+
134.0963	192	C9H12N+
148.1122	371	C10H14N+
149.0836	281	C9H11NO+
150.1278	556	C10H16N+
162.0914	17	C10H12NO+
178.1227	999	C11H16NO+
