Mass spectrum: 2-Acetylaminofluorene; LC-ESI-QFT; MS2; CE: 180%; R=15000; [M+H]+
Name: 2-Acetylaminofluorene
Name: N-(9H-fluoren-2-yl)acetamide
Formula: C15H13NO
Exact mass: 223.099714
SMILES: CC(=O)NC1=CC=C2C(CC3=C2C=CC=C3)=C1
InChI: InChI=1S/C15H13NO/c1-10(17)16-13-6-7-15-12(9-13)8-11-4-2-3-5-14(11)15/h2-7,9H,8H2,1H3,(H,16,17)
Instrument: Q Exactive Plus
Instrument type: LC-ESI-QFT
Ms type: MS2
Ion mode: POSITIVE
Ionization: ESI
Fragmentation mode: HCD
Collision energy: 180 % (nominal)
Resolution: 15000
Column name: XBridge C18 3.5um, 2.1x50mm, Waters
Retention time: 8.918 min
Base peak: 224.107
Precursor m/z: 224.107
Precursor type: [M+H]+
Precursor intensity: 497879017.52
m/z	relative intensity	assigned
51.0229	43	C4H3+
53.0386	21	C4H5+
62.0152	62	C5H2+
63.0229	246	C5H3+
65.0386	150	C5H5+
87.023	79	C7H3+
89.0386	421	C7H5+
91.0543	47	C7H7+
95.049	78	C6H7O+
102.0464	31	C8H6+
113.0386	132	C9H5+
115.0543	775	C9H7+
128.0619	106	C10H8+
138.0464	37	C11H6+
139.0543	745	C11H7+
140.0496	73	C10H6N+
145.0647	66	C10H9O+
150.0464	39	C12H6+
152.0621	811	C12H8+
153.0698	164	C12H9+
163.0542	999	C13H7+
164.0618	159	C13H8+
165.0699	253	C13H9+
166.0653	39	C12H8N+
169.0647	143	C12H9O+
178.065	16	C13H8N+
180.0807	153	C13H10N+
