Mass spectrum: Phenyl glucuronide; LC-ESI-QFT; MS2; CE: 30%; R=17500; [M-H]-
Name: Phenyl glucuronide
Name: 3,4,5-trihydroxy-6-phenoxyoxane-2-carboxylic acid
Name: Phenolic glucuronide
Formula: C12H14O7
Exact mass: 270.0739528
SMILES: C1=CC=C(C=C1)OC2C(C(C(C(O2)C(=O)O)O)O)O
InChI: InChI=1S/C12H14O7/c13-7-8(14)10(11(16)17)19-12(9(7)15)18-6-4-2-1-3-5-6/h1-5,7-10,12-15H,(H,16,17)
Instrument: Exploris 240 Orbitrap Thermo Scientific
Instrument type: LC-ESI-QFT
Ms type: MS2
Ion mode: NEGATIVE
Ionization: ESI
Fragmentation mode: HCD
Collision energy: 30 % (nominal)
Resolution: 17500
Column name: XBridge C18 3.5um, 2.1x50mm, Waters
Retention time: 2.934 min
Base peak: 269.0667
Precursor m/z: 269.0667
Precursor type: [M-H]-
m/z	relative intensity	assigned
57.0346	43	C3H5O-
59.0138	372	C2H3O2-
71.0138	75	C3H3O2-
72.9931	25	C2HO3-
73.0293	17	C3H5O2-
75.0088	212	C2H3O3-
83.0138	16	C4H3O2-
85.0295	449	C4H5O2-
87.0088	106	C3H3O3-
89.0243	89	C3H5O3-
93.0346	460	C6H5O-
95.0138	132	C5H3O2-
99.0088	218	C4H3O3-
101.0245	10	C4H5O3-
103.0037	91	C3H3O4-
111.0089	12	C5H3O3-
113.0244	999	C5H5O3-
115.0037	62	C4H3O4-
117.0194	192	C4H5O4-
129.0194	120	C5H5O4-
175.0248	131	C6H7O6-
251.0553	25	C12H11O6-
269.0668	129	C12H13O7-
