Mass spectrum: Hydroxytorasemide; LC-ESI-QFT; MS2; CE: 90%; R=17500; [M-H]-
Name: Hydroxytorasemide
Name: Torasemide metabolite M1
Name: 1-[4-[3-(hydroxymethyl)anilino]pyridin-3-yl]sulfonyl-3-propan-2-ylurea
Formula: C16H20N4O4S
Exact mass: 364.1205261
SMILES: CC(C)NC(=O)NS(=O)(=O)C1=C(C=CN=C1)NC2=CC=CC(=C2)CO
InChI: InChI=1S/C16H20N4O4S/c1-11(2)18-16(22)20-25(23,24)15-9-17-7-6-14(15)19-13-5-3-4-12(8-13)10-21/h3-9,11,21H,10H2,1-2H3,(H,17,19)(H2,18,20,22)
Instrument: Exploris 240 Orbitrap Thermo Scientific
Instrument type: LC-ESI-QFT
Ms type: MS2
Ion mode: NEGATIVE
Ionization: ESI
Fragmentation mode: HCD
Collision energy: 90 % (nominal)
Resolution: 17500
Column name: XBridge C18 3.5um, 2.1x50mm, Waters
Retention time: 4.137 min
Base peak: 363.113
Precursor m/z: 363.1132
Precursor type: [M-H]-
m/z	relative intensity	assigned
57.9756	138	CNS-
60.9756	67	CHOS-
61.9707	96	NOS-
63.9624	28	O2S-
65.0145	45	C3HN2-
77.9655	999	NO2S-
78.9734	105	HNO2S-
79.981	54	H2NO2S-
90.035	90	C6H4N-
91.0301	277	C5H3N2-
92.0379	553	C5H4N2-
93.0458	470	C5H5N2-
107.0489	44	C5H5N3-
108.0329	582	C5H4N2O-
108.0567	218	C5H6N3-
109.0408	38	C5H5N2O-
118.0411	27	C6H4N3-
121.0532	115	C7H7NO-
135.0021	38	C6H3N2S-
150.9972	86	C6H3N2OS-
167.0613	175	C11H7N2-
169.077	173	C11H9N2-
179.0615	104	C12H7N2-
181.064	255	C11H7N3-
182.0725	242	C11H8N3-
184.0881	86	C11H10N3-
192.0565	167	C12H6N3-
193.064	56	C12H7N3-
194.0722	383	C6H14N2O3S-
197.0721	419	C6H15NO4S-
199.0877	40	C12H11N2O-
211.0751	66	C12H9N3O-
212.0288	51	C11H6N3S-
