Mass spectrum: ortho-Hydroxyatorvastatin; LC-ESI-QFT; MS2; CE: 150%; R=17500; [M+H]+
Name: ortho-Hydroxyatorvastatin
Name: Orthohydroxyatorvastatin
Name: (3R,5R)-7-[2-(4-fluorophenyl)-4-[(2-hydroxyphenyl)carbamoyl]-3-phenyl-5-propan-2-ylpyrrol-1-yl]-3,5-dihydroxyheptanoic acid
Formula: C33H35FN2O6
Exact mass: 574.2479151
SMILES: CC(C1=C(C(NC2=CC=CC=C2O)=O)C(C3=CC=CC=C3)=C(C4=CC=C(F)C=C4)N1CC[C@@H](O)C[C@@H](O)CC(O)=O)C
InChI: InChI=1S/C33H35FN2O6/c1-20(2)31-30(33(42)35-26-10-6-7-11-27(26)39)29(21-8-4-3-5-9-21)32(22-12-14-23(34)15-13-22)36(31)17-16-24(37)18-25(38)19-28(40)41/h3-15,20,24-25,37-39H,16-19H2,1-2H3,(H,35,42)(H,40,41)/t24-,25-/m1/s1
Instrument: Exploris 240 Orbitrap Thermo Scientific
Instrument type: LC-ESI-QFT
Ms type: MS2
Ion mode: POSITIVE
Ionization: ESI
Fragmentation mode: HCD
Collision energy: 150 % (nominal)
Resolution: 17500
Column name: XBridge C18 3.5um, 2.1x50mm, Waters
Retention time: 9.950 min
Base peak: 575.2551
Precursor m/z: 575.2552
Precursor type: [M+H]+
m/z	relative intensity	assigned
63.0229	57	C5H3+
65.0385	98	C5H5+
75.0229	198	C6H3+
77.0386	396	C6H5+
80.0495	999	C5H6N+
83.0294	78	C5H4F+
89.0385	133	C7H5+
90.034	32	C6H4N+
90.0465	58	C7H6+
91.0544	85	C7H7+
95.029	24	C6H4F+
95.0491	134	C6H7O+
99.023	94	C8H3+
101.0387	89	C8H5+
102.0464	65	C8H6+
103.0543	59	C8H7+
104.0496	39	C7H6N+
105.0445	100	C6H5N2+
107.0292	58	C7H4F+
108.0373	51	C7H5F+
109.0449	96	C7H6F+
113.0393	30	C6H6FO+
115.0543	380	C9H7+
117.0572	34	C8H7N+
122.0402	39	C7H5FN+
123.0351	46	C6H4FN2+
125.0386	223	C10H5+
126.0463	119	C10H6+
127.0543	239	C10H7+
128.0497	52	C9H6N+
128.0623	196	C10H8+
129.0452	73	C8H5N2+
133.0447	229	C9H6F+
139.0545	91	C11H7+
140.0497	27	C10H6N+
141.0701	18	C11H9+
145.0655	30	C10H9O+
146.0522	149	C10H7F+
151.0544	40	C12H7+
152.0491	24	C11H6N+
152.0623	118	C12H8+
153.0575	34	C11H7N+
154.0653	67	C11H8N+
155.0602	100	C10H7N2+
157.0444	44	C11H6F+
163.0547	55	C13H7+
165.0705	36	C13H9+
167.0729	31	C12H9N+
170.0529	96	C12H7F+
173.0517	42	C10H6FN2+
176.0622	39	C14H8+
181.0449	27	C13H6F+
183.0604	201	C13H8F+
187.0544	66	C15H7+
189.0697	120	C15H9+
194.0528	36	C14H7F+
196.0692	64	C5H12N2O6+
200.0615	167	C16H8+
201.0704	90	C16H9+
202.0784	222	C16H10+
206.0521	27	C15H7F+
207.0607	538	C6H11N2O6+
213.0708	87	C14H10FO+
214.0658	66	C13H9FNO+
219.0602	86	C16H8F+
220.0684	588	C16H9F+
228.0819	65	C17H10N+
231.0604	133	C17H8F+
234.0707	272	C16H9FN+
235.0795	135	C16H10FN+
244.0682	45	C18H9F+
246.0707	105	C17H9FN+
248.0869	129	C17H11FN+
259.079	128	C18H10FN+
260.0874	47	C18H11FN+
272.088	68	C19H11FN+
