Mass spectrum: Metolachlor; LC-ESI-QFT; MS2; CE: 90%; R=15000; [M+H]+
Name: Metolachlor
Name: 2-chloro-N-(2-ethyl-6-methylphenyl)-N-(1-methoxypropan-2-yl)acetamide
Formula: C15H22ClNO2
Exact mass: 283.1339066
SMILES: CCC1=C(N(C(C)COC)C(=O)CCl)C(C)=CC=C1
InChI: InChI=1S/C15H22ClNO2/c1-5-13-8-6-7-11(2)15(13)17(14(18)9-16)12(3)10-19-4/h6-8,12H,5,9-10H2,1-4H3
Instrument: Q Exactive Plus
Instrument type: LC-ESI-QFT
Ms type: MS2
Ion mode: POSITIVE
Ionization: ESI
Fragmentation mode: HCD
Collision energy: 90 % (nominal)
Resolution: 15000
Column name: XBridge C18 3.5um, 2.1x50mm, Waters
Retention time: 10.500 min
Base peak: 284.1412
Precursor m/z: 284.1412
Precursor type: [M+H]+
Precursor intensity: 759501235.91
m/z	relative intensity	assigned
53.0386	21	C4H5+
65.0385	83	C5H5+
73.0647	71	C4H9O+
76.9788	149	C2H2ClO+
78.0465	25	C6H6+
79.0543	102	C6H7+
91.0542	999	C7H7+
93.0574	181	C6H7N+
93.0698	122	C7H9+
95.0491	97	C6H7O+
103.0542	115	C8H7+
104.062	84	C8H8+
105.0698	109	C8H9+
106.0652	96	C7H8N+
107.0733	79	C7H9N+
108.0808	338	C7H10N+
109.0648	135	C7H9O+
115.0543	249	C9H7+
116.0622	32	C9H8+
117.0574	98	C8H7N+
117.0699	382	C9H9+
118.0651	281	C8H8N+
119.073	591	C8H9N+
119.0855	133	C9H11+
120.0808	296	C8H10N+
130.0651	235	C9H8N+
131.073	366	C9H9N+
132.0808	529	C9H10N+
133.0886	726	C9H11N+
134.0964	562	C9H12N+
143.0732	174	C10H9N+
144.0808	396	C10H10N+
145.0886	252	C10H11N+
146.06	43	C9H8NO+
146.0964	410	C10H12N+
147.0679	37	C9H9NO+
148.1119	57	C10H14N+
158.0965	170	C11H12N+
159.1042	88	C11H13N+
160.1121	240	C11H14N+
176.1435	134	C12H18N+
