Mass spectrum: 13-cis Retinoic acid; LC-ESI-QFT; MS2; CE: 30%; R=15000; [M+H]+
Name: 13-cis Retinoic acid
Name: 3,7-Dimethyl-9-(2,6,6-trimethylcyclohex-1-en-1-yl)nona-2,4,6,8-tetraenoic acid
Name: 3,7-dimethyl-9-(2,6,6-trimethylcyclohexen-1-yl)nona-2,4,6,8-tetraenoic acid
Formula: C20H28O2
Exact mass: 300.2089301
SMILES: CC1=C(C(CCC1)(C)C)C=CC(=CC=CC(=CC(=O)O)C)C
InChI: InChI=1S/C20H28O2/c1-15(8-6-9-16(2)14-19(21)22)11-12-18-17(3)10-7-13-20(18,4)5/h6,8-9,11-12,14H,7,10,13H2,1-5H3,(H,21,22)
Instrument: Exploris 240 Thermo Scientific
Instrument type: LC-ESI-QFT
Ms type: MS2
Ion mode: POSITIVE
Ionization: ESI
Fragmentation mode: HCD
Collision energy: 30 % (nominal)
Resolution: 15000
Column name: XBridge C18 3.5um, 2.1x50mm, Waters
Retention time: 16.524 min
Base peak: 301.2161
Precursor m/z: 301.2162
Precursor type: [M+H]+
m/z	relative intensity	assigned
55.0543	38	C4H7+
57.07	28	C4H9+
69.0697	72	C5H9+
81.07	101	C6H9+
93.0698	34	C7H9+
95.0854	121	C7H11+
97.1012	34	C7H13+
105.0698	48	C8H9+
107.0855	52	C8H11+
109.1011	233	C8H13+
119.0853	102	C9H11+
121.1013	57	C9H13+
123.1168	999	C9H15+
125.0596	26	C7H9O2+
131.0852	41	C10H11+
133.1011	100	C10H13+
135.0804	28	C9H11O+
145.1011	151	C11H13+
147.117	66	C11H15+
157.1016	38	C12H13+
159.1168	301	C12H15+
161.0958	337	C11H13O+
161.132	120	C12H17+
171.1167	52	C13H15+
173.1326	86	C13H17+
175.1481	151	C13H19+
177.091	193	C11H13O2+
179.1066	149	C11H15O2+
187.1116	172	C13H15O+
191.1064	141	C12H15O2+
199.1124	63	C14H15O+
201.1634	409	C15H21+
205.1221	564	C13H17O2+
217.1222	115	C14H17O2+
219.1378	66	C14H19O2+
231.1373	76	C15H19O2+
241.1582	100	C17H21O+
241.1949	54	C18H25+
245.1537	174	C16H21O2+
255.2106	191	C19H27+
283.2056	276	C20H27O+
301.2161	736	C20H29O2+
