Mass spectrum: Acyclovir; LC-ESI-QFT; MS2; CE: 45%; R=17500; [M-H]-
Name: Acyclovir
Name: 2-amino-9-(2-hydroxyethoxymethyl)-3H-purin-6-one
Formula: C8H11N5O3
Exact mass: 225.0861892
SMILES: C1=NC2=C(N1COCCO)N=C(NC2=O)N
InChI: InChI=1S/C8H11N5O3/c9-8-11-6-5(7(15)12-8)10-3-13(6)4-16-2-1-14/h3,14H,1-2,4H2,(H3,9,11,12,15)
Instrument: Exploris 240 Orbitrap Thermo Scientific
Instrument type: LC-ESI-QFT
Ms type: MS2
Ion mode: NEGATIVE
Ionization: ESI
Fragmentation mode: HCD
Collision energy: 45 % (nominal)
Resolution: 17500
Column name: XBridge C18 3.5um, 2.1x50mm, Waters
Retention time: 1.167 min
Base peak: 224.0788
Precursor m/z: 224.0789
Precursor type: [M-H]-
m/z	relative intensity	assigned
59.0139	5	C2H3O2-
65.0146	24	C3HN2-
65.9985	13	C3NO-
66.0097	51	C2N3-
67.0301	29	C3H3N2-
90.0099	6	C4N3-
92.0253	127	C4H2N3-
94.0412	12	C4H4N3-
106.0287	13	C4H2N4-
107.0362	26	C4H3N4-
108.0204	56	C4H2N3O-
119.0363	161	C5H3N4-
120.0203	115	C5H2N3O-
124.0388	5	C4H4N4O-
125.0469	29	C4H5N4O-
133.0155	71	C5HN4O-
135.0311	96	C5H3N4O-
149.0343	156	C5H3N5O-
150.0421	649	C5H4N5O-
162.0421	344	C6H4N5O-
181.0733	21	C7H9N4O2-
182.0571	143	C7H8N3O3-
224.0789	999	C8H10N5O3-
