Mass spectrum: Prazosin; LC-ESI-QFT; MS2; CE: 120%; R=17500; [M+H]+
Name: Prazosin
Name: [4-(4-amino-6,7-dimethoxyquinazolin-2-yl)piperazin-1-yl]-(furan-2-yl)methanone
Formula: C19H21N5O4
Exact mass: 383.159354152
SMILES: COC1=C(C=C2C(=C1)C(=NC(=N2)N3CCN(CC3)C(=O)C4=CC=CO4)N)OC
InChI: InChI=1S/C19H21N5O4/c1-26-15-10-12-13(11-16(15)27-2)21-19(22-17(12)20)24-7-5-23(6-8-24)18(25)14-4-3-9-28-14/h3-4,9-11H,5-8H2,1-2H3,(H2,20,21,22)
Instrument: Exploris 240 Orbitrap Thermo Scientific
Instrument type: LC-ESI-QFT
Ms type: MS2
Ion mode: POSITIVE
Ionization: ESI
Fragmentation mode: HCD
Collision energy: 120 % (nominal)
Resolution: 17500
Column name: XBridge C18 3.5um, 2.1x50mm, Waters
Retention time: 4.835 min
Base peak: 384.1665
Precursor m/z: 384.1666
Precursor type: [M+H]+
m/z	relative intensity	assigned
51.023	6	C4H3+
65.0387	6	C5H5+
67.0178	35	C4H3O+
79.0415	4	C5H5N+
83.0128	13	C4H3O2+
90.034	8	C6H4N+
94.0288	20	C5H4NO+
95.0128	999	C5H3O2+
105.0448	19	C6H5N2+
106.0525	25	C6H6N2+
117.0449	6	C7H5N2+
119.0367	5	C7H5NO+
120.0445	8	C7H6NO+
131.0605	4	C8H7N2+
133.0394	32	C7H5N2O+
135.0321	5	C7H5NO2+
135.055	6	C7H7N2O+
147.0315	10	C8H5NO2+
147.0553	12	C8H7N2O+
150.0552	16	C8H8NO2+
160.0506	19	C8H6N3O+
161.035	23	C8H5N2O2+
161.0712	10	C9H9N2O+
177.0662	10	C9H9N2O2+
186.066	4	C10H8N3O+
188.0451	31	C9H6N3O2+
189.0655	11	C10H9N2O2+
201.0775	8	C10H9N4O+
203.0931	8	C10H11N4O+
205.0718	8	C9H9N4O2+
214.0605	5	C11H8N3O2+
217.0725	13	C10H9N4O2+
229.0715	16	C11H9N4O2+
231.0873	32	C11H11N4O2+
