Mass spectrum: Nintedanib; LC-ESI-QFT; MS2; CE: 90%; R=15000; [M-H]-
Name: Nintedanib
Name: methyl 2-hydroxy-3-[N-[4-[methyl-[2-(4-methylpiperazin-1-yl)acetyl]amino]phenyl]-C-phenylcarbonimidoyl]-1H-indole-6-carboxylate
Name: methyl 3-[N-[4-[methyl-[2-(4-methylpiperazin-1-yl)ethanoyl]amino]phenyl]-C-phenyl-carbonimidoyl]-2-oxidanyl-1H-indole-6-carboxylate
Formula: C31H33N5O4
Exact mass: 539.2532545
SMILES: CN1CCN(CC1)CC(=O)N(C)C2=CC=C(C=C2)N=C(C3=CC=CC=C3)C4=C(NC5=C4C=CC(=C5)C(=O)OC)O
InChI: InChI=1S/C31H33N5O4/c1-34-15-17-36(18-16-34)20-27(37)35(2)24-12-10-23(11-13-24)32-29(21-7-5-4-6-8-21)28-25-14-9-22(31(39)40-3)19-26(25)33-30(28)38/h4-14,19,33,38H,15-18,20H2,1-3H3
Instrument: Q Exactive
Instrument type: LC-ESI-QFT
Ms type: MS2
Ion mode: NEGATIVE
Ionization: ESI
Fragmentation mode: HCD
Collision energy: 90 % (nominal)
Resolution: 15000
Column name: XBridge C18 3.5um, 2.1x50mm, Waters
Retention time: 7.388 min
Base peak: 538.2455
Precursor m/z: 538.246
Precursor type: [M-H]-
Precursor intensity: 143017272.33
m/z	relative intensity	assigned
90.0348	27	C6H4N-
91.0427	13	C6H5N-
92.0503	17	C6H6N-
104.0376	30	C6H4N2-
105.0457	358	C6H5N2-
115.0301	161	C7H3N2-
117.0457	369	C7H5N2-
119.0613	999	C7H7N2-
131.0375	58	C8H5NO-
133.0406	614	C7H5N2O-
157.0405	34	C9H5N2O-
166.0659	31	C12H8N-
167.0737	58	C12H9N-
190.066	277	C14H8N-
191.0742	103	C14H9N-
192.0818	328	C14H10N-
215.046	25	C11H7N2O3-
310.1086	50	C19H12N5-
336.1142	144	C22H14N3O-
338.1287	72	C22H16N3O-
