Mass spectrum: Bifenazate; LC-ESI-QFT; MS2; CE: 15%; R=15000; [M+H]+
Name: Bifenazate
Name: propan-2-yl N-(2-methoxy-5-phenylanilino)carbamate
Formula: C17H20N2O3
Exact mass: 300.1473925
SMILES: CC(C)OC(=O)NNC1=C(C=CC(=C1)C2=CC=CC=C2)OC
InChI: InChI=1S/C17H20N2O3/c1-12(2)22-17(20)19-18-15-11-14(9-10-16(15)21-3)13-7-5-4-6-8-13/h4-12,18H,1-3H3,(H,19,20)
Instrument: Exploris 240 Thermo Scientific
Instrument type: LC-ESI-QFT
Ms type: MS2
Ion mode: POSITIVE
Ionization: ESI
Fragmentation mode: HCD
Collision energy: 15 % (nominal)
Resolution: 15000
Column name: XBridge C18 3.5um, 2.1x50mm, Waters
Retention time: 9.760 min
Base peak: 198.091
Precursor m/z: 301.1547
Precursor type: [M+H]+
m/z	relative intensity	assigned
170.0963	56	C12H12N+
198.091	999	C13H12NO+
199.0989	34	C13H13NO+
215.1171	13	C13H15N2O+
