Mass spectrum: Lacidipine; LC-ESI-QFT; MS2; CE: 75%; R=15000; [M-H]-
Name: Lacidipine
Name: 2,6-Dimethyl-4-[2-[3-[(2-methylpropan-2-yl)oxy]-3-oxoprop-1-enyl]phenyl]-1,4-dihydropyridine-3,5-dicarboxylic acid diethyl ester
Name: diethyl 2,6-dimethyl-4-[2-[3-[(2-methylpropan-2-yl)oxy]-3-oxoprop-1-enyl]phenyl]-1,4-dihydropyridine-3,5-dicarboxylate
Formula: C26H33NO6
Exact mass: 455.2307878
SMILES: CCOC(=O)C1=C(NC(=C(C1C2=CC=CC=C2C=CC(=O)OC(C)(C)C)C(=O)OCC)C)C
InChI: InChI=1S/C26H33NO6/c1-8-31-24(29)21-16(3)27-17(4)22(25(30)32-9-2)23(21)19-13-11-10-12-18(19)14-15-20(28)33-26(5,6)7/h10-15,23,27H,8-9H2,1-7H3
Instrument: Exploris 240 Thermo Scientific
Instrument type: LC-ESI-QFT
Ms type: MS2
Ion mode: NEGATIVE
Ionization: ESI
Fragmentation mode: HCD
Collision energy: 75 % (nominal)
Resolution: 15000
Column name: XBridge C18 3.5um, 2.1x50mm, Waters
Retention time: 13.159 min
Base peak: 454.2235
Precursor m/z: 454.2235
Precursor type: [M-H]-
m/z	relative intensity	assigned
57.0346	234	C3H5O-
68.9981	48	C3HO2-
73.0659	60	C4H9O-
101.0396	999	C8H5-
103.0552	102	C8H7-
113.0243	51	C5H5O3-
117.0707	23	C9H9-
119.0501	34	C8H7O-
147.045	46	C9H7O2-
178.0659	28	C13H8N-
205.0894	65	C15H11N-
206.0974	61	C15H12N-
220.0765	25	C15H10NO-
232.0765	60	C16H10NO-
234.092	84	C16H12NO-
246.0558	139	C16H8NO2-
247.0641	22	C16H9NO2-
261.0795	27	C17H11NO2-
262.0878	23	C17H12NO2-
