Mass spectrum: Benzophenone; LC-ESI-QFT; MS2; CE: 30%; R=17500; [M+H]+
Name: Benzophenone
Name: diphenylmethanone
Formula: C13H10O
Exact mass: 182.0731649
SMILES: C1=CC=C(C=C1)C(=O)C2=CC=CC=C2
InChI: InChI=1S/C13H10O/c14-13(11-7-3-1-4-8-11)12-9-5-2-6-10-12/h1-10H
Instrument: Exploris 240 Orbitrap Thermo Scientific
Instrument type: LC-ESI-QFT
Ms type: MS2
Ion mode: POSITIVE
Ionization: ESI
Fragmentation mode: HCD
Collision energy: 30 % (nominal)
Resolution: 17500
Column name: XBridge C18 3.5um, 2.1x50mm, Waters
Retention time: 8.799 min
Base peak: 183.0803
Precursor m/z: 183.0804
Precursor type: [M+H]+
m/z	relative intensity	assigned
105.0335	999	C7H5O+
183.0805	687	C13H11O+
