Mass spectrum: Pentoxifylline; LC-ESI-QFT; MS2; CE: 120%; R=17500; [M+H]+
Name: Pentoxifylline
Name: 3,7-dimethyl-1-(5-oxohexyl)purine-2,6-dione
Formula: C13H18N4O3
Exact mass: 278.1378904
SMILES: CC(=O)CCCCN1C(=O)C2=C(N=CN2C)N(C1=O)C
InChI: InChI=1S/C13H18N4O3/c1-9(18)6-4-5-7-17-12(19)10-11(14-8-15(10)2)16(3)13(17)20/h8H,4-7H2,1-3H3
Instrument: Exploris 240 Orbitrap Thermo Scientific
Instrument type: LC-ESI-QFT
Ms type: MS2
Ion mode: POSITIVE
Ionization: ESI
Fragmentation mode: HCD
Collision energy: 120 % (nominal)
Resolution: 17500
Column name: XBridge C18 3.5um, 2.1x50mm, Waters
Retention time: 4.458 min
Base peak: 279.1449
Precursor m/z: 279.1452
Precursor type: [M+H]+
m/z	relative intensity	assigned
54.0339	39	C3H4N+
56.0495	159	C3H6N+
67.029	999	C3H3N2+
68.037	106	C3H4N2+
69.0447	405	C3H5N2+
81.0449	90	C4H5N2+
83.0603	361	C4H7N2+
94.04	62	C4H4N3+
108.0556	187	C5H6N3+
122.0584	198	C5H6N4+
123.043	168	C5H5N3O+
135.0663	34	C6H7N4+
138.0664	60	C6H8N3O+
163.0615	76	C7H7N4O+
