Mass spectrum: Clomazone; LC-ESI-QFT; MS2; CE: 180%; R=15000; [M+H]+
Name: Clomazone
Name: 2-[(2-chlorophenyl)methyl]-4,4-dimethyl-1,2-oxazolidin-3-one
Formula: C12H14ClNO2
Exact mass: 239.0713064
SMILES: CC1(C)CON(CC2=C(Cl)C=CC=C2)C1=O
InChI: InChI=1S/C12H14ClNO2/c1-12(2)8-16-14(11(12)15)7-9-5-3-4-6-10(9)13/h3-6H,7-8H2,1-2H3
Instrument: Q Exactive Plus
Instrument type: LC-ESI-QFT
Ms type: MS2
Ion mode: POSITIVE
Ionization: ESI
Fragmentation mode: HCD
Collision energy: 180 % (nominal)
Resolution: 15000
Column name: XBridge C18 3.5um, 2.1x50mm, Waters
Retention time: 8.307 min
Base peak: 240.0788
Precursor m/z: 240.0786
Precursor type: [M+H]+
Precursor intensity: 831342266.19
m/z	relative intensity	assigned
61.0073	39	C5H+
62.0152	190	C5H2+
63.023	778	C5H3+
64.0308	56	C5H4+
65.0387	68	C5H5+
72.984	603	C3H2Cl+
74.9996	40	C3H4Cl+
89.0387	999	C7H5+
90.0466	150	C7H6+
96.9842	26	C5H2Cl+
98.9997	271	C5H4Cl+
