Mass spectrum: Selamectin; LC-ESI-QFT; MS2; CE: 15%; R=17500; [M-H]-
Name: Selamectin
Name: 6`-cyclohexyl-24-hydroxy-21-hydroxyimino-12-(5-hydroxy-4-methoxy-6-methyloxan-2-yl)oxy-5`,11,13,22-tetramethylspiro[3,7,19-trioxatetracyclo[15.6.1.14,8.020,24]pentacosa-10,14,16,22-tetraene-6,2`-oxane]-2-one
Formula: C43H63NO11
Exact mass: 769.440111836
SMILES: CC1CCC2(CC3CC(O2)CC=C(C(C(C=CC=C4COC5C4(C(C=C(C5=NO)C)C(=O)O3)O)C)OC6CC(C(C(O6)C)O)OC)C)OC1C7CCCCC7
InChI: InChI=1S/C43H63NO11/c1-24-11-10-14-30-23-50-40-36(44-48)27(4)19-33(43(30,40)47)41(46)52-32-20-31(16-15-25(2)38(24)53-35-21-34(49-6)37(45)28(5)51-35)54-42(22-32)18-17-26(3)39(55-42)29-12-8-7-9-13-29/h10-11,14-15,19,24,26,28-29,31-35,37-40,45,47-48H,7-9,12-13,16-18,20-23H2,1-6H3
Instrument: Exploris 240 Orbitrap Thermo Scientific
Instrument type: LC-ESI-QFT
Ms type: MS2
Ion mode: NEGATIVE
Ionization: ESI
Fragmentation mode: HCD
Collision energy: 15 % (nominal)
Resolution: 17500
Column name: XBridge C18 3.5um, 2.1x50mm, Waters
Retention time: 17.459 min
Base peak: 100.9337
Precursor m/z: 768.4328
Precursor type: [M-H]-
m/z	relative intensity	assigned
85.0295	49	C4H5O2-
211.1699	10	C13H23O2-
237.0786	6	C15H11NO2-
238.087	6	C15H12NO2-
588.3349	49	C36H46NO6-
732.4103	115	C43H58NO9-
750.4222	999	C43H60NO10-
