Mass spectrum: ortho-Hydroxyatorvastatin; LC-ESI-QFT; MS2; CE: 30%; R=17500; [M+H]+
Name: ortho-Hydroxyatorvastatin
Name: Orthohydroxyatorvastatin
Name: (3R,5R)-7-[2-(4-fluorophenyl)-4-[(2-hydroxyphenyl)carbamoyl]-3-phenyl-5-propan-2-ylpyrrol-1-yl]-3,5-dihydroxyheptanoic acid
Formula: C33H35FN2O6
Exact mass: 574.2479151
SMILES: CC(C1=C(C(NC2=CC=CC=C2O)=O)C(C3=CC=CC=C3)=C(C4=CC=C(F)C=C4)N1CC[C@@H](O)C[C@@H](O)CC(O)=O)C
InChI: InChI=1S/C33H35FN2O6/c1-20(2)31-30(33(42)35-26-10-6-7-11-27(26)39)29(21-8-4-3-5-9-21)32(22-12-14-23(34)15-13-22)36(31)17-16-24(37)18-25(38)19-28(40)41/h3-15,20,24-25,37-39H,16-19H2,1-2H3,(H,35,42)(H,40,41)/t24-,25-/m1/s1
Instrument: Exploris 240 Orbitrap Thermo Scientific
Instrument type: LC-ESI-QFT
Ms type: MS2
Ion mode: POSITIVE
Ionization: ESI
Fragmentation mode: HCD
Collision energy: 30 % (nominal)
Resolution: 17500
Column name: XBridge C18 3.5um, 2.1x50mm, Waters
Retention time: 9.950 min
Base peak: 575.2551
Precursor m/z: 575.2552
Precursor type: [M+H]+
m/z	relative intensity	assigned
136.0394	7	C7H6NO2+
250.1031	38	C17H13FN+
276.1193	12	C19H15FN+
279.1421	2	C19H18FN+
292.1497	132	C20H19FN+
294.1651	20	C20H21FN+
306.1288	3	C20H17FNO+
318.1659	10	C22H21FN+
320.1455	2	C21H19FNO+
344.1452	1	C23H19FNO+
362.1528	25	C26H20NO+
398.1766	27	C23H25FNO4+
402.1867	9	C29H24NO+
422.2129	140	C26H29FNO3+
424.1547	14	C24H23FNO5+
440.2235	999	C26H31FNO4+
441.2281	9	C26H33O6+
448.1908	15	C30H26NO3+
466.2026	195	C27H29FNO5+
575.2546	3	C33H36FN2O6+
