Mass spectrum: 3-Hydroxymethylmefenamic acid; LC-ESI-QFT; MS2; CE: 150%; R=17500; [M+H]+
Name: 3-Hydroxymethylmefenamic acid
Name: 3-Hydroxymethyl Mefenamic Acid
Name: 2-[3-(hydroxymethyl)-2-methylanilino]benzoic acid
Formula: C15H15NO3
Exact mass: 257.1051933
SMILES: CC1=C(C=CC=C1NC2=CC=CC=C2C(=O)O)CO
InChI: InChI=1S/C15H15NO3/c1-10-11(9-17)5-4-8-13(10)16-14-7-3-2-6-12(14)15(18)19/h2-8,16-17H,9H2,1H3,(H,18,19)
Instrument: Exploris 240 Orbitrap Thermo Scientific
Instrument type: LC-ESI-QFT
Ms type: MS2
Ion mode: POSITIVE
Ionization: ESI
Fragmentation mode: HCD
Collision energy: 150 % (nominal)
Resolution: 17500
Column name: XBridge C18 3.5um, 2.1x50mm, Waters
Retention time: 8.513 min
Base peak: 258.1122
Precursor m/z: 258.1125
Precursor type: [M+H]+
m/z	relative intensity	assigned
51.0229	119	C4H3+
63.0231	49	C5H3+
64.0309	46	C5H4+
65.0386	119	C5H5+
77.0385	206	C6H5+
78.0464	33	C6H6+
89.0386	98	C7H5+
90.0465	32	C7H6+
91.0543	81	C7H7+
92.0257	97	C6H4O+
95.0491	82	C6H7O+
102.0465	43	C8H6+
114.0461	31	C9H6+
115.0541	167	C9H7+
116.0495	38	C8H6N+
117.0573	30	C8H7N+
126.0467	61	C10H6+
128.0496	74	C9H6N+
139.0541	599	C11H7+
140.0494	234	C10H6N+
140.0621	87	C11H8+
150.0464	49	C12H6+
151.0541	179	C12H7+
152.062	413	C12H8+
153.0571	53	C11H7N+
164.0628	28	C13H8+
165.0702	233	C13H9+
166.065	923	C12H8N+
167.0729	999	C12H9N+
169.0652	96	C12H9O+
177.0576	113	C13H7N+
178.065	446	C13H8N+
180.0806	432	C13H10N+
190.065	50	C14H8N+
191.073	391	C14H9N+
192.0806	231	C14H10N+
193.089	69	C14H11N+
195.0678	58	C13H9NO+
