Mass spectrum: Hydroxytorasemide; LC-ESI-QFT; MS2; CE: 120%; R=17500; [M-H]-
Name: Hydroxytorasemide
Name: Torasemide metabolite M1
Name: 1-[4-[3-(hydroxymethyl)anilino]pyridin-3-yl]sulfonyl-3-propan-2-ylurea
Formula: C16H20N4O4S
Exact mass: 364.1205261
SMILES: CC(C)NC(=O)NS(=O)(=O)C1=C(C=CN=C1)NC2=CC=CC(=C2)CO
InChI: InChI=1S/C16H20N4O4S/c1-11(2)18-16(22)20-25(23,24)15-9-17-7-6-14(15)19-13-5-3-4-12(8-13)10-21/h3-9,11,21H,10H2,1-2H3,(H,17,19)(H2,18,20,22)
Instrument: Exploris 240 Orbitrap Thermo Scientific
Instrument type: LC-ESI-QFT
Ms type: MS2
Ion mode: NEGATIVE
Ionization: ESI
Fragmentation mode: HCD
Collision energy: 120 % (nominal)
Resolution: 17500
Column name: XBridge C18 3.5um, 2.1x50mm, Waters
Retention time: 4.137 min
Base peak: 363.113
Precursor m/z: 363.1132
Precursor type: [M-H]-
m/z	relative intensity	assigned
50.0037	23	C3N-
57.9757	153	CNS-
60.9754	23	CHOS-
61.9706	187	NOS-
63.9625	120	O2S-
65.0146	64	C3HN2-
77.9655	999	NO2S-
78.9735	118	HNO2S-
79.9813	21	H2NO2S-
90.0349	64	C6H4N-
91.0302	339	C5H3N2-
92.038	99	C5H4N2-
93.0458	624	C5H5N2-
107.0486	25	C5H5N3-
108.0329	184	C5H4N2O-
108.0567	233	C5H6N3-
109.041	29	C5H5N2O-
118.0416	27	C6H4N3-
167.0612	121	C11H7N2-
168.0567	83	C10H6N3-
169.0776	50	C11H9N2-
179.0618	147	C12H7N2-
181.065	77	C11H7N3-
182.0724	47	C11H8N3-
192.0568	114	C12H6N3-
194.0736	48	C6H14N2O3S-
195.0557	24	C4H11N4O3S-
197.0724	47	C6H15NO4S-
