Mass spectrum: 4-Hydroxybenzaldehyde; LC-ESI-QFT; MS2; CE: 180%; R=17500; [M+H]+
Name: 4-Hydroxybenzaldehyde
Formula: C7H6O2
Exact mass: 122.0367794
SMILES: C1=CC(=CC=C1C=O)O
InChI: InChI=1S/C7H6O2/c8-5-6-1-3-7(9)4-2-6/h1-5,9H
Instrument: Exploris 240 Orbitrap Thermo Scientific
Instrument type: LC-ESI-QFT
Ms type: MS2
Ion mode: POSITIVE
Ionization: ESI
Fragmentation mode: HCD
Collision energy: 180 % (nominal)
Resolution: 17500
Column name: XBridge C18 3.5um, 2.1x50mm, Waters
Retention time: 3.323 min
Base peak: 132.9582
Precursor m/z: 123.0441
Precursor type: [M+H]+
m/z	relative intensity	assigned
41.0385	21	C3H5+
50.0151	32	C4H2+
51.0229	999	C4H3+
53.0386	35	C4H5+
55.0178	31	C3H3O+
59.0491	9	C3H7O+
65.0386	56	C5H5+
66.0464	21	C5H6+
67.0543	11	C5H7+
77.0386	255	C6H5+
94.0413	20	C6H6O+
95.0491	102	C6H7O+
