Mass spectrum: Terbufos; LC-ESI-QFT; MS2; CE: 75%; R=15000; [M+H]+
Name: Terbufos
Name: tert-butylsulfanylmethylsulfanyl-diethoxy-sulfanylidene-lambda5-phosphane
Formula: C9H21O2PS3
Exact mass: 288.0441295
SMILES: CCOP(=S)(OCC)SCSC(C)(C)C
InChI: InChI=1S/C9H21O2PS3/c1-6-10-12(13,11-7-2)15-8-14-9(3,4)5/h6-8H2,1-5H3
Instrument: Q Exactive Plus
Instrument type: LC-ESI-QFT
Ms type: MS2
Ion mode: POSITIVE
Ionization: ESI
Fragmentation mode: HCD
Collision energy: 75 % (nominal)
Resolution: 15000
Column name: XBridge C18 3.5um, 2.1x50mm, Waters
Retention time: 13.736 min
Base peak: 289.0513
Precursor m/z: 289.0514
Precursor type: [M+H]+
Precursor intensity: 75883939.91
m/z	relative intensity	assigned
57.0699	999	C4H9+
96.9507	17	H2O2PS+
130.9383	41	H4O2PS2+
