Mass spectrum: Dorzolamide; LC-ESI-QFT; MS2; CE: 25%; R=15000; [M+H]+
Name: Dorzolamide
Name: (4S,6S)-4-(ethylamino)-6-methyl-7,7-bis(oxidanylidene)-5,6-dihydro-4H-thieno[2,3-b]thiopyran-2-sulfonamide
Name: 4-(ethylamino)-6-methyl-7,7-dioxo-5,6-dihydro-4H-thieno[2,3-b]thiopyran-2-sulfonamide
Formula: C10H16N2O4S3
Exact mass: 324.02722
SMILES: CCNC1CC(S(=O)(=O)C2=C1C=C(S2)S(=O)(=O)N)C
InChI: InChI=1S/C10H16N2O4S3/c1-3-12-8-4-6(2)18(13,14)10-7(8)5-9(17-10)19(11,15)16/h5-6,8,12H,3-4H2,1-2H3,(H2,11,15,16)
Instrument: Exploris 240 Thermo Scientific
Instrument type: LC-ESI-QFT
Ms type: MS2
Ion mode: POSITIVE
Ionization: ESI
Fragmentation mode: HCD
Collision energy: 25 % (nominal)
Resolution: 15000
Column name: XBridge C18 3.5um, 2.1x50mm, Waters
Retention time: 1.509 min
Base peak: 325.0341
Precursor m/z: 325.0345
Precursor type: [M+H]+
m/z	relative intensity	assigned
79.0544	35	C6H7+
91.0543	51	C7H7+
95.0495	20	C6H7O+
97.011	13	C5H5S+
123.0266	20	C7H7S+
135.0263	827	C8H7S+
136.0341	313	C8H8S+
151.0212	822	C8H7OS+
153.9909	28	C7H6S2+
154.9623	36	C6H3OS2+
155.9697	65	C6H4OS2+
198.9883	999	C8H7O2S2+
202.0777	307	C8H14N2O2S+
202.929	26	C6H3O2S3+
215.0068	251	C8H9NO2S2+
216.0148	155	C8H10NO2S2+
218.9475	69	C6H5NO2S3+
235.9504	426	C6H6NO3S3+
