Mass spectrum: Mirabegron; LC-ESI-QFT; MS2; CE: 45%; R=15000; [M+H]+
Name: Mirabegron
Name: (S)-Mirabegron
Name: 2-(2-azanyl-1,3-thiazol-4-yl)-N-[4-[2-[[(2R)-2-oxidanyl-2-phenyl-ethyl]amino]ethyl]phenyl]ethanamide
Formula: C21H24N4O2S
Exact mass: 396.161997
SMILES: C1=CC=C(C=C1)C(CNCCC2=CC=C(C=C2)NC(=O)CC3=CSC(=N3)N)O
InChI: InChI=1S/C21H24N4O2S/c22-21-25-18(14-28-21)12-20(27)24-17-8-6-15(7-9-17)10-11-23-13-19(26)16-4-2-1-3-5-16/h1-9,14,19,23,26H,10-13H2,(H2,22,25)(H,24,27)
Instrument: Q Exactive
Instrument type: LC-ESI-QFT
Ms type: MS2
Ion mode: POSITIVE
Ionization: ESI
Fragmentation mode: HCD
Collision energy: 45 % (nominal)
Resolution: 15000
Column name: XBridge C18 3.5um, 2.1x50mm, Waters
Retention time: 3.052 min
Base peak: 190.083
Precursor m/z: 397.1693
Precursor type: [M+H]+
Precursor intensity: 21474486.95
m/z	relative intensity	assigned
113.0168	513	C4H5N2S+
115.0324	68	C4H7N2S+
118.0651	29	C8H8N+
120.0808	812	C8H10N+
128.0495	38	C9H6N+
141.0117	175	C5H5N2OS+
146.06	999	C9H8NO+
215.0639	33	C12H11N2S+
242.0748	33	C13H12N3S+
260.085	46	C13H14N3OS+
265.1331	13	C17H17N2O+
