Mass spectrum: Suberoylanilide hydroxamic acid; LC-ESI-QFT; MS2; CE: 60%; R=15000; [M+H]+
Name: Suberoylanilide hydroxamic acid
Name: Vorinostat
Name: N`-hydroxy-N-phenyloctanediamide
Formula: C14H20N2O3
Exact mass: 264.1473925
SMILES: C1=CC=C(C=C1)NC(=O)CCCCCCC(=O)NO
InChI: InChI=1S/C14H20N2O3/c17-13(15-12-8-4-3-5-9-12)10-6-1-2-7-11-14(18)16-19/h3-5,8-9,19H,1-2,6-7,10-11H2,(H,15,17)(H,16,18)
Instrument: Exploris 240 Thermo Scientific
Instrument type: LC-ESI-QFT
Ms type: MS2
Ion mode: POSITIVE
Ionization: ESI
Fragmentation mode: HCD
Collision energy: 60 % (nominal)
Resolution: 15000
Column name: XBridge C18 3.5um, 2.1x50mm, Waters
Retention time: 4.916 min
Base peak: 265.1544
Precursor m/z: 265.1547
Precursor type: [M+H]+
m/z	relative intensity	assigned
55.0178	152	C3H3O+
55.0542	604	C4H7+
61.0284	38	C2H5O2+
67.0543	124	C5H7+
69.0336	45	C4H5O+
69.0699	252	C5H9+
77.0386	34	C6H5+
79.0542	115	C6H7+
81.07	60	C6H9+
83.0855	577	C6H11+
84.0807	28	C5H10N+
85.1012	42	C6H13+
91.0543	75	C7H7+
92.0494	138	C6H6N+
93.0698	305	C7H9+
94.0651	999	C6H8N+
95.0492	37	C6H7O+
95.0854	140	C7H11+
97.0649	41	C6H9O+
98.0966	39	C6H12N+
102.0916	43	C5H12NO+
103.0544	41	C8H7+
104.0492	96	C7H6N+
106.0652	21	C7H8N+
111.0804	254	C7H11O+
120.0443	643	C7H6NO+
121.0648	158	C8H9O+
130.0653	26	C9H8N+
139.0754	223	C8H11O2+
144.1021	40	C7H14NO2+
154.0865	22	C8H12NO2+
232.1329	170	C14H18NO2+
