Mass spectrum: Hydroxytorasemide; LC-ESI-QFT; MS2; CE: 15%; R=17500; [M+H]+
Name: Hydroxytorasemide
Name: Torasemide metabolite M1
Name: 1-[4-[3-(hydroxymethyl)anilino]pyridin-3-yl]sulfonyl-3-propan-2-ylurea
Formula: C16H20N4O4S
Exact mass: 364.1205261
SMILES: CC(C)NC(=O)NS(=O)(=O)C1=C(C=CN=C1)NC2=CC=CC(=C2)CO
InChI: InChI=1S/C16H20N4O4S/c1-11(2)18-16(22)20-25(23,24)15-9-17-7-6-14(15)19-13-5-3-4-12(8-13)10-21/h3-9,11,21H,10H2,1-2H3,(H,17,19)(H2,18,20,22)
Instrument: Exploris 240 Orbitrap Thermo Scientific
Instrument type: LC-ESI-QFT
Ms type: MS2
Ion mode: POSITIVE
Ionization: ESI
Fragmentation mode: HCD
Collision energy: 15 % (nominal)
Resolution: 17500
Column name: XBridge C18 3.5um, 2.1x50mm, Waters
Retention time: 4.126 min
Base peak: 365.1276
Precursor m/z: 365.1278
Precursor type: [M+H]+
m/z	relative intensity	assigned
280.0751	999	C12H14N3O3S+
281.0784	5	C15H11N3O3+
306.0544	248	C13H12N3O4S+
365.1279	673	C16H21N4O4S+
