Mass spectrum: Phosalone; LC-ESI-QFT; MS2; CE: 60%; R=15000; [M+H]+
Name: Phosalone
Name: 6-chloro-3-(diethoxyphosphinothioylsulfanylmethyl)-1,3-benzoxazol-2-one
Formula: C12H15ClNO4PS2
Exact mass: 366.9868643
SMILES: CCOP(=S)(OCC)SCN1C2=C(C=C(C=C2)Cl)OC1=O
InChI: InChI=1S/C12H15ClNO4PS2/c1-3-16-19(20,17-4-2)21-8-14-10-6-5-9(13)7-11(10)18-12(14)15/h5-7H,3-4,8H2,1-2H3
Instrument: Q Exactive Plus
Instrument type: LC-ESI-QFT
Ms type: MS2
Ion mode: POSITIVE
Ionization: ESI
Fragmentation mode: HCD
Collision energy: 60 % (nominal)
Resolution: 15000
Column name: XBridge C18 3.5um, 2.1x50mm, Waters
Retention time: 12.216 min
Base peak: 367.9946
Precursor m/z: 367.9941
Precursor type: [M+H]+
Precursor intensity: 198975553.66
m/z	relative intensity	assigned
51.023	107	C4H3+
53.0022	11	C3HO+
75.0229	150	C6H3+
78.0339	38	C5H4N+
79.0179	32	C5H3O+
86.9997	163	C4H4Cl+
92.0496	27	C6H6N+
93.0336	61	C6H5O+
94.0413	27	C6H6O+
96.9509	59	CH2ClOS+
98.9844	18	CH4ClO3+
102.0339	92	C7H4N+
103.0417	27	C7H5N+
110.9996	98	C6H4Cl+
111.0441	61	C6H7O2+
114.9614	548	H4O3PS+
120.0445	196	C7H6NO+
129.0102	815	C6H6ClO+
138.0106	666	C7H5ClN+
139.0058	999	C3H7O4S+
142.9385	10	CH4O2PS2+
170	45	C6H5NO3P+
182.0003	292	C8H5ClNO2+
