Mass spectrum: Trimebutine; LC-ESI-QFT; MS2; CE: 60%; R=17500; [M+H]+
Name: Trimebutine
Name: [2-(dimethylamino)-2-phenylbutyl] 3,4,5-trimethoxybenzoate
Formula: C22H29NO5
Exact mass: 387.204573028
SMILES: CCC(COC(=O)C1=CC(=C(C(=C1)OC)OC)OC)(C2=CC=CC=C2)N(C)C
InChI: InChI=1S/C22H29NO5/c1-7-22(23(2)3,17-11-9-8-10-12-17)15-28-21(24)16-13-18(25-4)20(27-6)19(14-16)26-5/h8-14H,7,15H2,1-6H3
Instrument: Exploris 240 Orbitrap Thermo Scientific
Instrument type: LC-ESI-QFT
Ms type: MS2
Ion mode: POSITIVE
Ionization: ESI
Fragmentation mode: HCD
Collision energy: 60 % (nominal)
Resolution: 17500
Column name: XBridge C18 3.5um, 2.1x50mm, Waters
Retention time: 6.755 min
Base peak: 388.2118
Precursor m/z: 388.2118
Precursor type: [M+H]+
m/z	relative intensity	assigned
53.0386	9	C4H5+
77.0388	12	C6H5+
79.0542	52	C6H7+
81.0335	16	C5H5O+
81.0698	25	C6H9+
91.0542	319	C7H7+
95.0493	11	C6H7O+
96.0567	20	C6H8O+
107.0494	9	C7H7O+
108.0572	11	C7H8O+
109.0647	51	C7H9O+
115.0544	14	C9H7+
116.0623	45	C9H8+
122.0363	29	C7H6O2+
124.0518	54	C7H8O2+
129.0699	51	C10H9+
131.0855	439	C10H11+
138.0679	38	C8H10O2+
139.0392	11	C7H7O3+
139.0752	134	C8H11O2+
152.0466	164	C8H8O3+
154.0624	318	C8H10O3+
167.0704	143	C9H11O3+
169.0856	32	C9H13O3+
195.0652	999	C10H11O4+
198.0521	67	C9H10O5+
