Mass spectrum: Nevirapine; LC-ESI-QFT; MS2; CE: 60%; R=17500; [M+H]+
Name: Nevirapine
Name: 2-cyclopropyl-7-methyl-2,4,9,15-tetrazatricyclo[9.4.0.03,8]pentadeca-1(11),3,5,7,12,14-hexaen-10-one
Formula: C15H14N4O
Exact mass: 266.1167611
SMILES: CC1=C2C(=NC=C1)N(C3=C(C=CC=N3)C(=O)N2)C4CC4
InChI: InChI=1S/C15H14N4O/c1-9-6-8-17-14-12(9)18-15(20)11-3-2-7-16-13(11)19(14)10-4-5-10/h2-3,6-8,10H,4-5H2,1H3,(H,18,20)
Instrument: Exploris 240 Orbitrap Thermo Scientific
Instrument type: LC-ESI-QFT
Ms type: MS2
Ion mode: POSITIVE
Ionization: ESI
Fragmentation mode: HCD
Collision energy: 60 % (nominal)
Resolution: 17500
Column name: XBridge C18 3.5um, 2.1x50mm, Waters
Retention time: 4.746 min
Base peak: 267.1236
Precursor m/z: 267.124
Precursor type: [M+H]+
m/z	relative intensity	assigned
53.0386	14	C4H5+
80.0494	186	C5H6N+
107.0603	238	C6H7N2+
108.0684	36	C6H8N2+
109.0757	12	C6H9N2+
121.0393	17	C6H5N2O+
124.0633	13	C6H8N2O+
125.0707	21	C6H9N2O+
131.0601	20	C8H7N2+
133.0761	15	C8H9N2+
143.0601	18	C9H7N2+
144.0684	46	C9H8N2+
145.0758	18	C9H9N2+
147.0918	15	C9H11N2+
159.0547	22	C9H7N2O+
160.0631	54	C9H8N2O+
161.0707	91	C9H9N2O+
182.0714	12	C11H8N3+
183.0789	21	C11H9N3+
184.0874	70	C11H10N3+
197.0819	16	C11H9N4+
198.0897	96	C11H10N4+
210.0659	29	C12H8N3O+
212.0817	19	C12H10N3O+
223.0983	19	C13H11N4+
225.0769	51	C12H9N4O+
226.0848	999	C12H10N4O+
227.0925	329	C12H11N4O+
237.0771	53	C13H9N4O+
238.0844	18	C13H10N4O+
239.093	35	C13H11N4O+
239.1288	52	C14H15N4+
249.1128	69	C15H13N4+
250.0969	26	C15H12N3O+
251.0919	48	C14H11N4O+
252.1011	60	C14H12N4O+
267.124	685	C15H15N4O+
