Mass spectrum: Flurochloridone; LC-ESI-QFT; MS2; CE: 60%; R=15000; [M+H]+
Name: Flurochloridone
Name: 3-chloro-4-(chloromethyl)-1-[3-(trifluoromethyl)phenyl]pyrrolidin-2-one
Formula: C12H10Cl2F3NO
Exact mass: 311.009154
SMILES: C1C(C(C(=O)N1C2=CC=CC(=C2)C(F)(F)F)Cl)CCl
InChI: InChI=1S/C12H10Cl2F3NO/c13-5-7-6-18(11(19)10(7)14)9-3-1-2-8(4-9)12(15,16)17/h1-4,7,10H,5-6H2
Instrument: Exploris 240 Thermo Scientific
Instrument type: LC-ESI-QFT
Ms type: MS2
Ion mode: POSITIVE
Ionization: ESI
Fragmentation mode: HCD
Collision energy: 60 % (nominal)
Resolution: 15000
Column name: XBridge C18 3.5um, 2.1x50mm, Waters
Retention time: 9.717 min
Base peak: 312.0161
Precursor m/z: 312.0164
Precursor type: [M+H]+
m/z	relative intensity	assigned
53.0385	999	C4H5+
74.9995	100	C3H4Cl+
89.0151	493	C4H6Cl+
102.9943	126	C4H4ClO+
114.9944	41	C5H4ClO+
130.0648	38	C9H8N+
154.046	57	C8H6F2N+
172.037	180	C8H5F3N+
174.0521	73	C8H7F3N+
192.0616	97	C11H8F2N+
198.052	135	C10H7F3N+
212.0678	340	C11H9F3N+
220.0127	44	C12H3F3O+
228.0382	31	C11H9ClF2N+
240.063	162	C12H9F3NO+
256.0331	133	C12H9ClF2NO+
276.039	29	C12H10ClF3NO+
292.0099	592	C12H10Cl2F2NO+
