Mass spectrum: N-Desmethylrosuvastatin; LC-ESI-QFT; MS2; CE: 75%; R=17500; [M-H]-
Name: N-Desmethylrosuvastatin
Name: 7-[4-(4-fluorophenyl)-2-(methanesulfonamido)-6-propan-2-ylpyrimidin-5-yl]-3,5-dihydroxyhept-6-enoic acid
Formula: C21H26FN3O6S
Exact mass: 467.1526348
SMILES: CC(C)C1=NC(=NC(=C1C=CC(CC(CC(=O)O)O)O)C2=CC=C(C=C2)F)NS(=O)(=O)C
InChI: InChI=1S/C21H26FN3O6S/c1-12(2)19-17(9-8-15(26)10-16(27)11-18(28)29)20(13-4-6-14(22)7-5-13)24-21(23-19)25-32(3,30)31/h4-9,12,15-16,26-27H,10-11H2,1-3H3,(H,28,29)(H,23,24,25)
Instrument: Exploris 240 Orbitrap Thermo Scientific
Instrument type: LC-ESI-QFT
Ms type: MS2
Ion mode: NEGATIVE
Ionization: ESI
Fragmentation mode: HCD
Collision energy: 75 % (nominal)
Resolution: 17500
Column name: XBridge C18 3.5um, 2.1x50mm, Waters
Retention time: 5.365 min
Base peak: 466.145
Precursor m/z: 466.1454
Precursor type: [M-H]-
m/z	relative intensity	assigned
55.0302	62	C2H3N2-
57.0347	61	C3H5O-
59.0139	368	C2H3O2-
63.9624	767	O2S-
76.9703	347	CHO2S-
78.9859	845	CH3O2S-
83.0502	241	C5H7O-
85.0293	74	C4H5O2-
87.0087	121	C3H3O3-
93.9973	109	CH4NO2S-
95.0307	64	C6H4F-
103.9687	109	CN2O2S-
118.9921	999	C2H3N2O2S-
134.0727	42	C7H8N3-
173.0519	53	C10H6FN2-
185.0522	46	C11H6FN2-
186.0472	366	C10H5FN3-
186.104	86	C11H12N3-
188.083	111	C10H10N3O-
198.047	498	C11H5FN3-
200.0628	301	C11H7FN3-
204.114	71	C11H14N3O-
214.0792	104	C6H15FN2O3S-
226.0793	123	C7H15FN2O3S-
228.0943	130	C13H11FN3-
230.1095	230	C10H18N2O2S-
238.0783	264	C11H14N2O2S-
240.0582	569	C18H8O-
240.0943	340	C14H11FN3-
242.1097	648	C11H18N2O2S-
252.095	99	C9H17FN2O3S-
254.1094	438	C12H18N2O2S-
256.0891	132	C14H11FN3O-
256.1259	102	C20H16-
280.1253	67	C14H20N2O2S-
282.1418	118	C11H23FN2O3S-
284.1199	213	C13H20N2O3S-
292.0566	98	C21H7FN-
320.087	320	C15H15FN3O2S-
