Mass spectrum: Entacapone; LC-ESI-QFT; MS2; CE: 75%; R=15000; [M-H]-
Name: Entacapone
Name: 2-cyano-3-(3,4-dihydroxy-5-nitrophenyl)-N,N-diethylprop-2-enamide
Name: (E)-2-cyano-N,N-diethyl-3-[3-nitro-4,5-bis(oxidanyl)phenyl]prop-2-enamide
Formula: C14H15N3O5
Exact mass: 305.1011706
SMILES: CCN(CC)C(=O)C(=CC1=CC(=C(C(=C1)O)O)[N+](=O)[O-])C#N
InChI: InChI=1S/C14H15N3O5/c1-3-16(4-2)14(20)10(8-15)5-9-6-11(17(21)22)13(19)12(18)7-9/h5-7,18-19H,3-4H2,1-2H3
Instrument: Q Exactive
Instrument type: LC-ESI-QFT
Ms type: MS2
Ion mode: NEGATIVE
Ionization: ESI
Fragmentation mode: HCD
Collision energy: 75 % (nominal)
Resolution: 15000
Column name: XBridge C18 3.5um, 2.1x50mm, Waters
Retention time: 6.172 min
Base peak: 304.094
Precursor m/z: 304.0939
Precursor type: [M-H]-
Precursor intensity: 682091319.81
m/z	relative intensity	assigned
65.9985	999	C3NO-
100.0193	70	C7H2N-
118.03	22	C7H4NO-
128.0142	81	C8H2NO-
131.0378	12	C8H5NO-
143.025	72	C8H3N2O-
156.0092	141	C9H2NO2-
157.0168	156	C9H3NO2-
169.0404	31	C10H5N2O-
184.0039	71	C10H2NO3-
