Mass spectrum: Cyclopentolate; LC-ESI-QFT; MS2; CE: 70%; R=15000; [M+H]+
Name: Cyclopentolate
Name: 2-(dimethylamino)ethyl 2-(1-oxidanylcyclopentyl)-2-phenyl-ethanoate
Formula: C17H25NO3
Exact mass: 291.1834437
SMILES: CN(C)CCOC(=O)C(C1=CC=CC=C1)C2(CCCC2)O
InChI: InChI=1S/C17H25NO3/c1-18(2)12-13-21-16(19)15(14-8-4-3-5-9-14)17(20)10-6-7-11-17/h3-5,8-9,15,20H,6-7,10-13H2,1-2H3
Instrument: Exploris 240 Thermo Scientific
Instrument type: LC-ESI-QFT
Ms type: MS2
Ion mode: POSITIVE
Ionization: ESI
Fragmentation mode: HCD
Collision energy: 70 % (nominal)
Resolution: 15000
Column name: XBridge C18 3.5um, 2.1x50mm, Waters
Retention time: 4.922 min
Base peak: 292.1903
Precursor m/z: 292.1907
Precursor type: [M+H]+
m/z	relative intensity	assigned
56.0494	150	C3H6N+
57.0572	80	C3H7N+
57.0699	27	C4H9+
65.0385	412	C5H5+
67.0542	163	C5H7+
70.0651	148	C4H8N+
72.0807	259	C4H10N+
77.0387	32	C6H5+
79.0541	86	C6H7+
91.0542	999	C7H7+
95.0492	75	C6H7O+
115.0541	112	C9H7+
127.054	23	C10H7+
128.0617	197	C10H8+
129.07	43	C10H9+
141.0703	40	C11H9+
202.0777	389	C16H10+
