Mass spectrum: Isoxaflutole; LC-ESI-QFT; MS2; CE: 150%; R=15000; [M+H]+
Name: Isoxaflutole
Name: (5-cyclopropyl-1,2-oxazol-4-yl)-[2-methylsulfonyl-4-(trifluoromethyl)phenyl]methanone
Formula: C15H12F3NO4S
Exact mass: 359.0439135
SMILES: CS(=O)(=O)C1=C(C=CC(=C1)C(F)(F)F)C(=O)C1=C(ON=C1)C1CC1
InChI: InChI=1S/C15H12F3NO4S/c1-24(21,22)12-6-9(15(16,17)18)4-5-10(12)13(20)11-7-19-23-14(11)8-2-3-8/h4-8H,2-3H2,1H3
Instrument: Q Exactive Plus
Instrument type: LC-ESI-QFT
Ms type: MS2
Ion mode: POSITIVE
Ionization: ESI
Fragmentation mode: HCD
Collision energy: 150 % (nominal)
Resolution: 15000
Column name: XBridge C18 3.5um, 2.1x50mm, Waters
Retention time: 7.750 min
Base peak: 360.0514
Precursor m/z: 360.0512
Precursor type: [M+H]+
Precursor intensity: 182019318.31
m/z	relative intensity	assigned
50.0151	127	C4H2+
51.0041	75	CHF2+
51.023	123	C4H3+
53.0385	19	C4H5+
57.0135	152	C3H2F+
59.9664	31	COS+
61.0073	19	C5H+
62.0151	76	C5H2+
62.9899	33	CH3OS+
63.0229	452	C5H3+
65.0387	18	C5H5+
68.0057	64	C4HF+
68.9794	203	C3HS+
68.9947	67	CF3+
70.0213	182	C4H3F+
71.0291	19	C4H4F+
74.0151	199	C6H2+
75.0041	229	C3HF2+
75.0229	999	C6H3+
77.0386	23	C6H5+
78.0465	12	C6H6+
79.0178	27	C5H3O+
81.0135	60	C5H2F+
81.9872	13	C4H2S+
83.0292	198	C5H4F+
87.0231	16	C7H3+
88.0119	25	C4H2F2+
89.0386	38	C7H5+
92.9794	19	C5HS+
92.9951	14	C3F3+
93.0136	34	C6H2F+
94.0214	322	C6H3F+
94.995	228	C5H3S+
95.0492	55	C6H7O+
98.0152	43	C8H2+
99.0041	65	C5HF2+
99.0232	64	C8H3+
101.0198	247	C5H3F2+
108.003	15	F3H3O3+
109.0449	58	C7H6F+
112.012	23	C6H2F2+
112.032	27	C6H5FO+
112.9856	25	C5H2FS+
113.02	36	C6H3F2+
113.0396	19	C6H6FO+
113.9935	26	C5H3FS+
115.0014	27	C5H4FS+
119.0102	55	C5H2F3+
120.0182	24	C5H3F3+
123.0043	25	C7HF2+
123.0356	17	FH10NO3S+
125.0198	576	C7H3F2+
127.0355	43	C7H5F2+
131.0299	12	C6H5F2O+
132.0181	112	C6H3F3+
141.015	17	C7H3F2O+
141.0261	33	C3H8FNO2S+
143.0104	514	C7H2F3+
144.0183	30	C7H3F3+
145.0258	46	C7H4F3+
156.9918	30	C7H3F2S+
