Mass spectrum: Flurprimidol; LC-ESI-QFT; MS2; CE: 90%; R=15000; [M+H]+
Name: Flurprimidol
Name: 2-methyl-1-pyrimidin-5-yl-1-[4-(trifluoromethoxy)phenyl]propan-1-ol
Formula: C15H15F3N2O2
Exact mass: 312.1085624
SMILES: CC(C)C(C1=CC=C(C=C1)OC(F)(F)F)(C2=CN=CN=C2)O
InChI: InChI=1S/C15H15F3N2O2/c1-10(2)14(21,12-7-19-9-20-8-12)11-3-5-13(6-4-11)22-15(16,17)18/h3-10,21H,1-2H3
Instrument: Exploris 240 Thermo Scientific
Instrument type: LC-ESI-QFT
Ms type: MS2
Ion mode: POSITIVE
Ionization: ESI
Fragmentation mode: HCD
Collision energy: 90 % (nominal)
Resolution: 15000
Column name: XBridge C18 3.5um, 2.1x50mm, Waters
Retention time: 9.380 min
Base peak: 313.1155
Precursor m/z: 313.1158
Precursor type: [M+H]+
m/z	relative intensity	assigned
54.0338	201	C3H4N+
80.0369	125	C4H4N2+
81.0447	674	C4H5N2+
123.0352	64	C6H4FN2+
129.0697	13	C10H9+
130.0651	140	C9H8N+
146.0601	36	C9H8NO+
155.06	68	C10H7N2+
157.0764	36	C10H9N2+
158.0598	54	C10H8NO+
175.0367	59	C8H6F3O+
185.071	171	C11H9N2O+
189.0145	411	C11H3F2O+
199.0365	178	C10H6F3O+
214.0472	337	C10H7F3NO+
215.0315	70	C10H6F3O2+
241.0578	131	C11H8F3N2O+
242.0424	306	C14H6F2NO+
269.0533	999	C12H8F3N2O2+
