Mass spectrum: 2-Acetylaminofluorene; LC-ESI-QFT; MS2; CE: 90%; R=15000; [M-H]-
Name: 2-Acetylaminofluorene
Name: N-(9H-fluoren-2-yl)acetamide
Formula: C15H13NO
Exact mass: 223.099714
SMILES: CC(=O)NC1=CC=C2C(CC3=C2C=CC=C3)=C1
InChI: InChI=1S/C15H13NO/c1-10(17)16-13-6-7-15-12(9-13)8-11-4-2-3-5-14(11)15/h2-7,9H,8H2,1H3,(H,16,17)
Instrument: Q Exactive Plus
Instrument type: LC-ESI-QFT
Ms type: MS2
Ion mode: NEGATIVE
Ionization: ESI
Fragmentation mode: HCD
Collision energy: 90 % (nominal)
Resolution: 15000
Column name: XBridge C18 3.5um, 2.1x50mm, Waters
Retention time: 8.899 min
Base peak: 116.9287
Precursor m/z: 222.0924
Precursor type: [M-H]-
Precursor intensity: 4452493.24
m/z	relative intensity	assigned
129.0711	91	C10H9-
179.074	869	C13H9N-
180.0818	999	C13H10N-
