Mass spectrum: Tribenuron-methyl; LC-ESI-QFT; MS2; CE: 60%; R=15000; [M+H]+
Name: Tribenuron-methyl
Name: methyl 2-[[(4-methoxy-6-methyl-1,3,5-triazin-2-yl)-methylcarbamoyl]sulfamoyl]benzoate
Formula: C15H17N5O6S
Exact mass: 395.0899543
SMILES: CC1=NC(=NC(=N1)OC)N(C)C(=O)NS(=O)(=O)C2=CC=CC=C2C(=O)OC
InChI: InChI=1S/C15H17N5O6S/c1-9-16-13(18-14(17-9)26-4)20(2)15(22)19-27(23,24)11-8-6-5-7-10(11)12(21)25-3/h5-8H,1-4H3,(H,19,22)
Instrument: Exploris 240 Thermo Scientific
Instrument type: LC-ESI-QFT
Ms type: MS2
Ion mode: POSITIVE
Ionization: ESI
Fragmentation mode: HCD
Collision energy: 60 % (nominal)
Resolution: 15000
Column name: XBridge C18 3.5um, 2.1x50mm, Waters
Retention time: 6.962 min
Base peak: 396.0963
Precursor m/z: 396.0972
Precursor type: [M+H]+
m/z	relative intensity	assigned
56.0494	728	C3H6N+
57.0446	352	C2H5N2+
58.0286	77	C2H4NO+
71.0602	277	C3H7N2+
77.0385	89	C6H5+
79.054	55	C6H7+
81.0446	246	C4H5N2+
82.0399	49	C3H4N3+
83.0238	665	C3H3N2O+
90.0338	26	C6H4N+
95.0489	57	C6H7O+
96.0553	57	C4H6N3+
114.0659	145	C4H8N3O+
124.0503	45	C5H6N3O+
125.0344	35	C5H5N2O2+
135.0438	447	C8H7O2+
138.0659	74	C6H8N3O+
140.0453	52	C5H6N3O2+
155.0924	999	C6H11N4O+
181.0715	304	C7H9N4O2+
199.0054	102	C14HNO+
