Mass spectrum: Mefenpyr-diethyl; LC-ESI-QFT; MS2; CE: 150%; R=15000; [M+H]+
Name: Mefenpyr-diethyl
Name: diethyl 1-(2,4-dichlorophenyl)-5-methyl-4H-pyrazole-3,5-dicarboxylate
Formula: C16H18Cl2N2O4
Exact mass: 372.0643624
SMILES: CCOC(=O)C1=NN(C2=C(Cl)C=C(Cl)C=C2)C(C)(C1)C(=O)OCC
InChI: InChI=1S/C16H18Cl2N2O4/c1-4-23-14(21)12-9-16(3,15(22)24-5-2)20(19-12)13-7-6-10(17)8-11(13)18/h6-8H,4-5,9H2,1-3H3
Instrument: Q Exactive Plus
Instrument type: LC-ESI-QFT
Ms type: MS2
Ion mode: POSITIVE
Ionization: ESI
Fragmentation mode: HCD
Collision energy: 150 % (nominal)
Resolution: 15000
Column name: XBridge C18 3.5um, 2.1x50mm, Waters
Retention time: 11.907 min
Base peak: 373.0719
Precursor m/z: 373.0716
Precursor type: [M+H]+
Precursor intensity: 306650994.19
m/z	relative intensity	assigned
51.0229	11	C4H3+
61.0073	13	C5H+
62.0151	45	C5H2+
63.0229	126	C5H3+
72.9839	477	C3H2Cl+
74.0151	999	C6H2+
75.0229	137	C6H3+
82.9449	405	CHCl2+
83.9761	12	C4HCl+
84.9839	28	C4H2Cl+
86.9633	74	C3ClO+
88.0183	16	C6H2N+
89.0385	29	C7H5+
90.0339	53	C6H4N+
95.0489	16	C6H7O+
96.9839	71	C5H2Cl+
98.9996	29	C5H4Cl+
99.0229	10	C8H3+
100.0181	19	C7H2N+
106.9451	90	C3HCl2+
108.984	575	C6H2Cl+
109.9919	32	C6H3Cl+
114.0338	31	C8H4N+
123.9949	16	C6H3ClN+
125.0027	50	C6H4ClN+
127.0416	25	C9H5N+
128.0492	26	C9H6N+
132.9606	319	C5H3Cl2+
144.9607	21	C6H3Cl2+
189.0214	10	C10H6ClN2+
