Mass spectrum: Abacavir 5`-carboxylate; LC-ESI-QFT; MS2; CE: 90%; R=17500; [M-H]-
Name: Abacavir 5`-carboxylate
Name: 4-[2-amino-6-(cyclopropylamino)purin-9-yl]cyclopent-2-ene-1-carboxylic acid
Formula: C14H16N6O2
Exact mass: 300.1334738
SMILES: C1CC1NC2=C3C(=NC(=N2)N)N(C=N3)C4CC(C=C4)C(=O)O
InChI: InChI=1S/C14H16N6O2/c15-14-18-11(17-8-2-3-8)10-12(19-14)20(6-16-10)9-4-1-7(5-9)13(21)22/h1,4,6-9H,2-3,5H2,(H,21,22)(H3,15,17,18,19)
Instrument: Exploris 240 Orbitrap Thermo Scientific
Instrument type: LC-ESI-QFT
Ms type: MS2
Ion mode: NEGATIVE
Ionization: ESI
Fragmentation mode: HCD
Collision energy: 90 % (nominal)
Resolution: 17500
Column name: XBridge C18 3.5um, 2.1x50mm, Waters
Retention time: 3.380 min
Base peak: 299.1261
Precursor m/z: 299.1262
Precursor type: [M-H]-
m/z	relative intensity	assigned
66.0098	488	C2N3-
66.0349	105	C4H4N-
81.0457	51	C4H5N2-
82.0412	36	C3H4N3-
91.0303	23	C5H3N2-
93.0458	65	C5H5N2-
105.0205	52	C4HN4-
106.0285	999	C4H2N4-
107.0363	670	C4H3N4-
118.0409	13	C6H4N3-
120.0568	34	C6H6N3-
131.0237	203	C5HN5-
131.049	13	C7H5N3-
132.0316	977	C5H2N5-
147.0674	92	C7H7N4-
148.0503	365	C5H4N6-
149.0584	9	C5H5N6-
161.0581	30	C6H5N6-
189.0891	71	C8H9N6-
