Mass spectrum: Diuron; LC-ESI-QFT; MS2; CE: 120%; R=15000; [M+H]+
Name: Diuron
Name: 3-(3,4-dichlorophenyl)-1,1-dimethylurea
Formula: C9H10Cl2N2O
Exact mass: 232.0170183
SMILES: CN(C)C(=O)NC1=CC(Cl)=C(Cl)C=C1
InChI: InChI=1S/C9H10Cl2N2O/c1-13(2)9(14)12-6-3-4-7(10)8(11)5-6/h3-5H,1-2H3,(H,12,14)
Instrument: Q Exactive Plus
Instrument type: LC-ESI-QFT
Ms type: MS2
Ion mode: POSITIVE
Ionization: ESI
Fragmentation mode: HCD
Collision energy: 120 % (nominal)
Resolution: 15000
Column name: XBridge C18 3.5um, 2.1x50mm, Waters
Retention time: 7.879 min
Base peak: 233.0244
Precursor m/z: 233.0243
Precursor type: [M+H]+
Precursor intensity: 345293009.05
m/z	relative intensity	assigned
56.0131	105	C2H2NO+
72.0444	999	C3H6NO+
72.984	21	C3H2Cl+
74.015	18	C6H2+
90.0341	10	C6H4N+
108.9842	31	C6H2Cl+
123.9952	10	C6H3ClN+
125.0027	57	C6H4ClN+
132.9607	112	C5H3Cl2+
