Mass spectrum: Tepraloxydim; LC-ESI-QFT; MS2; CE: 45%; R=15000; [M-H]-
Name: Tepraloxydim
Name: 2-Cyclohexen-1-one, 2-(1-((((2E)-3-chloro-2-propenyl)oxy)imino)propyl)-3-hydroxy-5-(tetrahydro-2H-pyran-4-yl)-
Name: 2-[N-[(E)-3-chloroprop-2-enoxy]-C-ethylcarbonimidoyl]-3-hydroxy-5-(oxan-4-yl)cyclohex-2-en-1-one
Formula: C17H24ClNO4
Exact mass: 341.1393859
SMILES: CCC(=C1C(=O)CC(CC1=O)C2CCOCC2)NOCC=CCl
InChI: InChI=1S/C17H24ClNO4/c1-2-14(19-23-7-3-6-18)17-15(20)10-13(11-16(17)21)12-4-8-22-9-5-12/h3,6,12-13,19H,2,4-5,7-11H2,1H3
Instrument: Q Exactive Plus
Instrument type: LC-ESI-QFT
Ms type: MS2
Ion mode: NEGATIVE
Ionization: ESI
Fragmentation mode: HCD
Collision energy: 45 % (nominal)
Resolution: 15000
Column name: XBridge C18 3.5um, 2.1x50mm, Waters
Retention time: 10.003 min
Base peak: 340.1321
Precursor m/z: 340.1321
Precursor type: [M-H]-
Precursor intensity: 110160583.24
m/z	relative intensity	assigned
65.9982	14	C3NO-
92.0505	10	C6H6N-
108.0454	11	C6H6NO-
109.0291	12	C6H5O2-
110.0611	17	C6H8NO-
134.0248	210	C7H4NO2-
145.0534	12	C9H7NO-
153.092	11	C9H13O2-
163.064	21	C9H9NO2-
165.0795	19	C9H11NO2-
176.1078	20	C11H14NO-
195.1027	34	C11H15O3-
206.1185	47	C12H16NO2-
220.0978	364	C12H14NO3-
221.1184	50	C13H17O3-
248.1292	999	C14H18NO3-
250.1448	34	C14H20NO3-
