Mass spectrum: Tetramethrin; LC-ESI-QFT; MS2; CE: 60%; R=15000; [M+H]+
Name: Tetramethrin
Name: (1,3-dioxo-4,5,6,7-tetrahydroisoindol-2-yl)methyl 2,2-dimethyl-3-(2-methylprop-1-enyl)cyclopropane-1-carboxylate
Formula: C19H25NO4
Exact mass: 331.1783583
SMILES: CC(=CC1C(C1(C)C)C(=O)OCN2C(=O)C3=C(C2=O)CCCC3)C
InChI: InChI=1S/C19H25NO4/c1-11(2)9-14-15(19(14,3)4)18(23)24-10-20-16(21)12-7-5-6-8-13(12)17(20)22/h9,14-15H,5-8,10H2,1-4H3
Instrument: Exploris 240 Thermo Scientific
Instrument type: LC-ESI-QFT
Ms type: MS2
Ion mode: POSITIVE
Ionization: ESI
Fragmentation mode: HCD
Collision energy: 60 % (nominal)
Resolution: 15000
Column name: XBridge C18 3.5um, 2.1x50mm, Waters
Retention time: 13.389 min
Base peak: 332.1851
Precursor m/z: 332.1856
Precursor type: [M+H]+
m/z	relative intensity	assigned
79.0542	33	C6H7+
81.0697	31	C6H9+
93.0697	99	C7H9+
95.0855	14	C7H11+
105.0697	14	C8H9+
107.049	89	C7H7O+
107.0853	108	C8H11+
121.101	100	C9H13+
135.0439	94	C8H7O2+
135.1166	253	C10H15+
145.1009	13	C11H13+
163.1111	22	C11H15O+
164.0703	999	C9H10NO2+
