Mass spectrum: Nitrofurantoin; LC-ESI-QFT; MS2; CE: 30%; R=15000; [M-H]-
Name: Nitrofurantoin
Name: 1-[(5-Nitro-2-furanyl)methylideneamino]imidazolidine-2,4-dione
Name: 1-[(5-nitrofuran-2-yl)methylideneamino]imidazolidine-2,4-dione
Formula: C8H6N4O5
Exact mass: 238.0338193
SMILES: [O-][N+](=O)C1=CC=C(O1)C=NN1CC(=O)NC1=O
InChI: InChI=1S/C8H6N4O5/c13-6-4-11(8(14)10-6)9-3-5-1-2-7(17-5)12(15)16/h1-3H,4H2,(H,10,13,14)
Instrument: Q Exactive Plus
Instrument type: LC-ESI-QFT
Ms type: MS2
Ion mode: NEGATIVE
Ionization: ESI
Fragmentation mode: HCD
Collision energy: 30 % (nominal)
Resolution: 15000
Column name: XBridge C18 3.5um, 2.1x50mm, Waters
Retention time: 3.239 min
Base peak: 237.0266
Precursor m/z: 237.0265
Precursor type: [M-H]-
Precursor intensity: 17106369.99
m/z	relative intensity	assigned
64.0192	25	C4H2N-
77.0032	145	C5HO-
80.0142	19	C4H2NO-
97.0042	20	C3HN2O2-
99.02	78	C3H3N2O2-
108.0092	41	C5H2NO2-
119.0251	34	C6H3N2O-
120.0331	22	C6H4N2O-
124.004	512	C5H2NO3-
133.0281	24	C6H3N3O-
147.02	58	C7H3N2O2-
152.0102	999	C5H2N3O3-
164.0231	28	C7H4N2O3-
194.0207	75	C7H4N3O4-
237.0265	339	C8H5N4O5-
