Mass spectrum: 6-2-FTAB; LC-ESI-QFT; MS2; CE: 45%; R=17500; [M+H]+
Name: 6-2-FTAB
Name: 1-Propanaminium, N-(carboxymethyl)-N,N-dimethyl-3-(((3,3,4,4,5,5,6,6,7,7,8,8,8-tridecafluorooctyl)sulfonyl)amino)-, inner salt
Name: 2-[dimethyl-[3-(3,3,4,4,5,5,6,6,7,7,8,8,8-tridecafluorooctylsulfonylamino)propyl]azaniumyl]acetate
Formula: C15H19F13N2O4S
Exact mass: 570.085794948
SMILES: C[N+](C)(CCCNS(=O)(=O)CCC(C(C(C(C(C(F)(F)F)(F)F)(F)F)(F)F)(F)F)(F)F)CC(=O)[O-]
InChI: InChI=1S/C15H19F13N2O4S/c1-30(2,8-9(31)32)6-3-5-29-35(33,34)7-4-10(16,17)11(18,19)12(20,21)13(22,23)14(24,25)15(26,27)28/h29H,3-8H2,1-2H3
Instrument: Exploris 240 Orbitrap Thermo Scientific
Instrument type: LC-ESI-QFT
Ms type: MS2
Ion mode: POSITIVE
Ionization: ESI
Fragmentation mode: HCD
Collision energy: 45 % (nominal)
Resolution: 17500
Column name: XBridge C18 3.5um, 2.1x50mm, Waters
Retention time: 11.007 min
Base peak: 571.0927
Precursor m/z: 571.0931
Precursor type: [M+H]+
m/z	relative intensity	assigned
65.0199	29	C2H3F2+
72.0444	16	C3H6NO+
104.0706	999	C4H10NO2+
212.9937	47	C5H4F3N2O2S+
439.9982	735	C9H7F13NO2S+
468.0291	134	C11H11F13NO2S+
571.091	108	C15H20F13N2O4S+
