Mass spectrum: Alachlor; LC-ESI-QFT; MS2; CE: 60%; R=15000; [M+H]+
Name: Alachlor
Name: 2-chloro-N-(2,6-diethylphenyl)-N-(methoxymethyl)acetamide
Formula: C14H20ClNO2
Exact mass: 269.1182566
SMILES: CCC1=CC=CC(CC)=C1N(COC)C(=O)CCl
InChI: InChI=1S/C14H20ClNO2/c1-4-11-7-6-8-12(5-2)14(11)16(10-18-3)13(17)9-15/h6-8H,4-5,9-10H2,1-3H3
Instrument: Q Exactive Plus
Instrument type: LC-ESI-QFT
Ms type: MS2
Ion mode: POSITIVE
Ionization: ESI
Fragmentation mode: HCD
Collision energy: 60 % (nominal)
Resolution: 15000
Column name: XBridge C18 3.5um, 2.1x50mm, Waters
Retention time: 10.464 min
Base peak: 238.0993
Precursor m/z: 270.1255
Precursor type: [M+H]+
Precursor intensity: 97784955.41
m/z	relative intensity	assigned
76.9788	73	C2H2ClO+
90.0105	308	C3H5ClN+
117.0572	14	C8H7N+
118.0649	52	C8H8N+
132.0808	182	C9H10N+
134.0965	91	C9H12N+
146.0963	153	C10H12N+
147.1042	999	C10H13N+
160.112	26	C11H14N+
161.1196	32	C11H15N+
162.1276	994	C11H16N+
171.1041	20	C12H13N+
