Mass spectrum: PFMPA; LC-ESI-QFT; MS2; CE: 45%; R=17500; [M-H]-
Name: PFMPA
Name: Propionic acid, 2,2,3,3-tetrafluoro-3-(trifluoromethoxy)-
Name: 2,2,3,3-tetrafluoro-3-(trifluoromethoxy)propanoic acid
Formula: C4HF7O3
Exact mass: 229.981391432
SMILES: C(=O)(C(C(OC(F)(F)F)(F)F)(F)F)O
InChI: InChI=1S/C4HF7O3/c5-2(6,1(12)13)3(7,8)14-4(9,10)11/h(H,12,13)
Instrument: Exploris 240 Orbitrap Thermo Scientific
Instrument type: LC-ESI-QFT
Ms type: MS2
Ion mode: NEGATIVE
Ionization: ESI
Fragmentation mode: HCD
Collision energy: 45 % (nominal)
Resolution: 17500
Column name: XBridge C18 3.5um, 2.1x50mm, Waters
Retention time: 4.565 min
Base peak: 228.9741
Precursor m/z: 228.9741
Precursor type: [M-H]-
m/z	relative intensity	assigned
84.9907	999	CF3O-
