Mass spectrum: Flufenacet; LC-ESI-QFT; MS2; CE: 120%; R=15000; [M+H]+
Name: Flufenacet
Name: N-(4-fluorophenyl)-N-propan-2-yl-2-[[5-(trifluoromethyl)-1,3,4-thiadiazol-2-yl]oxy]acetamide
Formula: C14H13F4N3O2S
Exact mass: 363.0664605
SMILES: CC(C)N(C(=O)COC1=NN=C(S1)C(F)(F)F)C1=CC=C(F)C=C1
InChI: InChI=1S/C14H13F4N3O2S/c1-8(2)21(10-5-3-9(15)4-6-10)11(22)7-23-13-20-19-12(24-13)14(16,17)18/h3-6,8H,7H2,1-2H3
Instrument: Q Exactive Plus
Instrument type: LC-ESI-QFT
Ms type: MS2
Ion mode: POSITIVE
Ionization: ESI
Fragmentation mode: HCD
Collision energy: 120 % (nominal)
Resolution: 15000
Column name: XBridge C18 3.5um, 2.1x50mm, Waters
Retention time: 10.445 min
Base peak: 364.0739
Precursor m/z: 364.0737
Precursor type: [M+H]+
Precursor intensity: 508954947.53
m/z	relative intensity	assigned
50.0151	76	C4H2+
51.023	269	C4H3+
53.0386	316	C4H5+
57.0135	182	C3H2F+
59.0291	60	C3H4F+
63.023	67	C5H3+
65.0386	23	C5H5+
71.0292	64	C4H4F+
74.0151	64	C6H2+
75.0229	420	C6H3+
76.0181	21	C5H2N+
77.0386	198	C6H5+
78.034	28	C5H4N+
81.0135	21	C5H2F+
83.0292	783	C5H4F+
89.0388	59	C7H5+
95.0293	111	C6H4F+
95.0492	886	C6H7O+
96.037	393	C6H5F+
96.044	65	C5H6NO+
97.0449	999	C6H6F+
104.0495	189	C7H6N+
105.0448	287	C6H5N2+
107.0291	252	C7H4F+
109.0448	658	C7H6F+
110.0399	42	C6H5FN+
113.0397	495	C6H6FO+
114.035	49	C5H5FNO+
122.0403	68	C7H5FN+
123.0241	104	C7H4FO+
123.0352	469	C6H4FN2+
124.0558	591	C7H7FN+
134.0399	23	C8H5FN+
135.0478	34	C8H6FN+
136.0555	109	C8H7FN+
