Mass spectrum: Flumioxazin; LC-ESI-QFT; MS2; CE: 60%; R=15000; [M+H]+
Name: Flumioxazin
Name: 2-(7-fluoro-3-oxo-4-prop-2-ynyl-1,4-benzoxazin-6-yl)-4,5,6,7-tetrahydroisoindole-1,3-dione
Formula: C19H15FN2O4
Exact mass: 354.1015852
SMILES: FC1=CC2=C(C=C1N1C(=O)C3=C(CCCC3)C1=O)N(CC#C)C(=O)CO2
InChI: InChI=1S/C19H15FN2O4/c1-2-7-21-15-9-14(13(20)8-16(15)26-10-17(21)23)22-18(24)11-5-3-4-6-12(11)19(22)25/h1,8-9H,3-7,10H2
Instrument: Q Exactive Plus
Instrument type: LC-ESI-QFT
Ms type: MS2
Ion mode: POSITIVE
Ionization: ESI
Fragmentation mode: HCD
Collision energy: 60 % (nominal)
Resolution: 15000
Column name: XBridge C18 3.5um, 2.1x50mm, Waters
Retention time: 8.237 min
Base peak: 355.1091
Precursor m/z: 355.1089
Precursor type: [M+H]+
Precursor intensity: 108809856.34
m/z	relative intensity	assigned
51.023	24	C4H3+
53.0386	156	C4H5+
54.0338	14	C3H4N+
55.0179	47	C3H3O+
67.0542	38	C5H7+
68.0495	46	C4H6N+
77.0386	71	C6H5+
79.0542	896	C6H7+
80.062	66	C6H8+
81.0335	51	C5H5O+
81.0699	173	C6H9+
91.0542	64	C7H7+
95.0492	255	C6H7O+
97.0648	28	C6H9O+
104.0493	18	C7H6N+
105.0336	22	C7H5O+
105.0447	75	C6H5N2+
106.0288	15	C6H4NO+
107.0492	984	C7H7O+
108.0571	55	C7H8O+
119.0491	18	C8H7O+
121.0448	543	C8H6F+
122.04	21	C7H5FN+
128.0494	105	C9H6N+
129.0448	42	C8H5N2+
132.044	16	C8H6NO+
134.04	49	C8H5FN+
134.06	61	C8H8NO+
135.0443	106	C8H7O2+
138.0351	80	C7H5FNO+
146.0402	27	C9H5FN+
146.06	43	C9H8NO+
148.0557	767	C9H7FN+
149.0398	309	C9H6FO+
149.0507	31	C8H6FN2+
149.0628	63	C9H8FN+
150.0349	64	C8H5FNO+
151.0306	20	C7H4FN2O+
152.0145	43	C7H3FNO2+
152.0508	11	C8H7FNO+
156.0442	44	C10H6NO+
161.0509	12	C9H6FN2+
162.0347	34	C9H5FNO+
163.0301	19	C8H4FN2O+
163.0665	15	C9H8FN2+
165.0458	12	C8H6FN2O+
166.0661	56	C9H9FNO+
171.055	37	C10H7N2O+
173.0503	29	C10H6FN2+
174.0562	16	C7H9FNO3+
175.0428	30	C10H6FNO+
176.0506	565	C10H7FNO+
177.0584	132	C10H8FNO+
178.0659	18	C13H8N+
179.0248	45	C8H4FN2O2+
188.0503	33	C11H7FNO+
189.0457	71	C10H6FN2O+
190.0534	131	C10H7FN2O+
191.0247	16	C9H4FN2O2+
191.0612	87	C13H7N2+
192.0685	13	C13H8N2+
195.0918	29	C13H11N2+
196.0751	19	C13H10NO+
199.0498	32	C11H7N2O2+
200.0876	15	C13H11FN+
203.0605	61	C14H7N2+
204.0455	125	C11H7FNO2+
205.0403	53	C10H6FN2O2+
205.0761	17	C14H9N2+
212.0873	88	C14H11FN+
215.0614	40	C12H8FN2O+
219.0563	180	C11H8FN2O2+
223.0661	51	C14H8FN2+
230.0617	64	C13H9FNO2+
231.0565	33	C12H8FN2O2+
232.0404	128	C12H7FNO3+
236.0738	27	C15H9FN2+
237.0656	33	C14H9N2O2+
239.0606	101	C14H8FN2O+
243.056	42	C13H8FN2O2+
243.093	42	C14H12FN2O+
253.0768	150	C15H10FN2O+
255.0928	15	C15H12FN2O+
258.056	37	C14H9FNO3+
258.0927	52	C15H13FNO2+
259.0514	606	C13H8FN2O3+
266.0852	54	C16H11FN2O+
267.0932	23	C16H12FN2O+
270.0558	72	C15H9FNO3+
271.0513	141	C14H8FN2O3+
271.0874	145	C15H12FN2O2+
274.0876	78	C15H13FNO3+
279.0752	214	C16H11N2O3+
285.0661	309	C18H9N2O2+
285.1044	33	C16H14FN2O2+
287.0827	233	C15H12FN2O3+
299.0828	999	C16H12FN2O3+
327.0768	57	C17H12FN2O4+
327.1142	86	C18H16FN2O3+
