Mass spectrum: 5-Chloro-2-methyl-3(2H)-isothiazolone; LC-ESI-QFT; MS2; CE: 180%; R=15000; [M+H]+
Name: 5-Chloro-2-methyl-3(2H)-isothiazolone
Name: 5-Chloro-2-methyl-4-isothiazolin-3-one
Name: 5-chloro-2-methyl-1,2-thiazol-3-one
Formula: C4H4ClNOS
Exact mass: 148.9702124
SMILES: CN1SC(Cl)=CC1=O
InChI: InChI=1S/C4H4ClNOS/c1-6-4(7)2-3(5)8-6/h2H,1H3
Instrument: Q Exactive Plus
Instrument type: LC-ESI-QFT
Ms type: MS2
Ion mode: POSITIVE
Ionization: ESI
Fragmentation mode: HCD
Collision energy: 180 % (nominal)
Resolution: 15000
Column name: XBridge C18 3.5um, 2.1x50mm, Waters
Retention time: 3.393 min
Base peak: 149.9776
Precursor m/z: 149.9775
Precursor type: [M+H]+
Precursor intensity: 734386484.33
m/z	relative intensity	assigned
52.0182	17	C3H2N+
56.9793	42	C2HS+
57.9872	83	C2H2S+
58.0287	108	C2H4NO+
58.995	46	C2H3S+
59.9665	18	COS+
60.9839	21	C2H2Cl+
61.9792	24	CHClN+
67.0179	37	C4H3O+
68.9794	25	C3HS+
69.9746	15	C2NS+
70.995	35	C3H3S+
73.9792	27	C2HClN+
74.0058	10	C2H4NS+
75.9711	16	C2HClO+
78.9404	34	CClS+
82.9824	70	C3HNS+
83.9665	93	C3OS+
84.9742	17	C3HOS+
86.9633	999	C3ClO+
90.9404	13	C2ClS+
