Mass spectrum: Lumefantrine; LC-ESI-QFT; MS2; CE: 60%; R=15000; [M+H]+
Name: Lumefantrine
Name: Benflumetol
Name: 2-(dibutylamino)-1-[2,7-dichloro-9-[(4-chlorophenyl)methylidene]fluoren-4-yl]ethanol
Formula: C30H32Cl3NO
Exact mass: 527.1549477
SMILES: CCCCN(CCCC)CC(C1=C2C3=C(C=C(C=C3)Cl)C(=CC4=CC=C(C=C4)Cl)C2=CC(=C1)Cl)O
InChI: InChI=1S/C30H32Cl3NO/c1-3-5-13-34(14-6-4-2)19-29(35)28-18-23(33)17-27-25(15-20-7-9-21(31)10-8-20)26-16-22(32)11-12-24(26)30(27)28/h7-12,15-18,29,35H,3-6,13-14,19H2,1-2H3
Instrument: Exploris 240 Thermo Scientific
Instrument type: LC-ESI-QFT
Ms type: MS2
Ion mode: POSITIVE
Ionization: ESI
Fragmentation mode: HCD
Collision energy: 60 % (nominal)
Resolution: 15000
Column name: XBridge C18 3.5um, 2.1x50mm, Waters
Retention time: 13.745 min
Base peak: 528.1627
Precursor m/z: 528.1622
Precursor type: [M+H]+
m/z	relative intensity	assigned
57.0699	104	C4H9+
100.1121	19	C6H14N+
236.0387	20	C16H9Cl+
276.0935	176	C22H12+
278.1093	132	C22H14+
310.0551	47	C22H11Cl+
311.0626	72	C22H12Cl+
312.0701	123	C22H13Cl+
313.0784	135	C22H14Cl+
327.0813	306	C22H14ClN+
340.0894	159	C23H15ClN+
346.0315	999	C22H12Cl2+
347.039	62	C22H13Cl2+
348.0473	276	C22H14Cl2+
362.0505	20	C22H14Cl2N+
374.0507	93	C23H14Cl2N+
383.0156	64	C22H14Cl3+
