Mass spectrum: 4-Hydroxypropanolol-sulfate; LC-ESI-QFT; MS2; CE: 15%; R=17500; [M+H]+
Name: 4-Hydroxypropanolol-sulfate
Name: 4-[2-Hydroxy-3-(propan-2-ylamino)propoxy]naphthalen-1-yl hydrogen sulfate
Name: [4-[2-hydroxy-3-(propan-2-ylamino)propoxy]naphthalen-1-yl] hydrogen sulfate
Name: HOPS
Formula: C16H21NO6S
Exact mass: 355.1089584
SMILES: CC(C)NCC(COC1=CC=C(C2=CC=CC=C21)OS(=O)(=O)O)O
InChI: InChI=1S/C16H21NO6S/c1-11(2)17-9-12(18)10-22-15-7-8-16(23-24(19,20)21)14-6-4-3-5-13(14)15/h3-8,11-12,17-18H,9-10H2,1-2H3,(H,19,20,21)
Instrument: Exploris 240 Orbitrap Thermo Scientific
Instrument type: LC-ESI-QFT
Ms type: MS2
Ion mode: POSITIVE
Ionization: ESI
Fragmentation mode: HCD
Collision energy: 15 % (nominal)
Resolution: 17500
Column name: XBridge C18 3.5um, 2.1x50mm, Waters
Retention time: 3.203 min
Base peak: 356.1162
Precursor m/z: 356.1162
Precursor type: [M+H]+
m/z	relative intensity	assigned
116.1072	7	C6H14NO+
276.1596	78	C16H22NO3+
356.1163	999	C16H22NO6S+
