Mass spectrum: Lamivudine; LC-ESI-QFT; MS2; CE: 45%; R=17500; [M+H]+
Name: Lamivudine
Name: 4-amino-1-(2-(hydroxymethyl)-1,3-oxathiolan-5-yl)pyrimidin-2(1H)-one
Name: 4-amino-1-[2-(hydroxymethyl)-1,3-oxathiolan-5-yl]pyrimidin-2-one
Formula: C8H11N3O3S
Exact mass: 229.0521122
SMILES: C1C(OC(S1)CO)N2C=CC(=NC2=O)N
InChI: InChI=1S/C8H11N3O3S/c9-5-1-2-11(8(13)10-5)6-4-15-7(3-12)14-6/h1-2,6-7,12H,3-4H2,(H2,9,10,13)
Instrument: Exploris 240 Orbitrap Thermo Scientific
Instrument type: LC-ESI-QFT
Ms type: MS2
Ion mode: POSITIVE
Ionization: ESI
Fragmentation mode: HCD
Collision energy: 45 % (nominal)
Resolution: 17500
Column name: XBridge C18 3.5um, 2.1x50mm, Waters
Retention time: 1.427 min
Base peak: 230.0592
Precursor m/z: 230.0594
Precursor type: [M+H]+
m/z	relative intensity	assigned
61.0107	3	C2H5S+
73.0108	9	C3H5S+
95.0241	6	C4H3N2O+
101.0056	17	C4H5OS+
112.0505	999	C4H6N3O+
