Mass spectrum: Disulfiram; LC-ESI-QFT; MS2; CE: 60%; R=17500; [M+H]+
Name: Disulfiram
Name: diethylcarbamothioylsulfanyl N,N-diethylcarbamodithioate
Formula: C10H20N2S4
Exact mass: 296.05093264
SMILES: CCN(CC)C(=S)SSC(=S)N(CC)CC
InChI: InChI=1S/C10H20N2S4/c1-5-11(6-2)9(13)15-16-10(14)12(7-3)8-4/h5-8H2,1-4H3
Instrument: Exploris 240 Orbitrap Thermo Scientific
Instrument type: LC-ESI-QFT
Ms type: MS2
Ion mode: POSITIVE
Ionization: ESI
Fragmentation mode: HCD
Collision energy: 60 % (nominal)
Resolution: 17500
Column name: XBridge C18 3.5um, 2.1x50mm, Waters
Retention time: 10.039 min
Base peak: 116.0527
Precursor m/z: 297.0582
Precursor type: [M+H]+
m/z	relative intensity	assigned
59.9902	494	CH2NS+
61.0106	14	C2H5S+
72.0807	162	C4H10N+
76.9514	68	CHS2+
88.0215	999	C3H6NS+
104.0531	13	C4H10NS+
116.0528	306	C5H10NS+
148.0248	145	C5H10NS2+
