Mass spectrum: Fluazifop-butyl; LC-ESI-QFT; MS2; CE: 120%; R=15000; [M+H]+
Name: Fluazifop-butyl
Name: butyl 2-[4-[5-(trifluoromethyl)pyridin-2-yl]oxyphenoxy]propanoate
Formula: C19H20F3NO4
Exact mass: 383.1344428
SMILES: CCCCOC(=O)C(C)OC1=CC=C(OC2=CC=C(C=N2)C(F)(F)F)C=C1
InChI: InChI=1S/C19H20F3NO4/c1-3-4-11-25-18(24)13(2)26-15-6-8-16(9-7-15)27-17-10-5-14(12-23-17)19(20,21)22/h5-10,12-13H,3-4,11H2,1-2H3
Instrument: Q Exactive Plus
Instrument type: LC-ESI-QFT
Ms type: MS2
Ion mode: POSITIVE
Ionization: ESI
Fragmentation mode: HCD
Collision energy: 120 % (nominal)
Resolution: 15000
Column name: XBridge C18 3.5um, 2.1x50mm, Waters
Retention time: 13.597 min
Base peak: 384.142
Precursor m/z: 384.1417
Precursor type: [M+H]+
Precursor intensity: 286626437.05
m/z	relative intensity	assigned
50.0152	25	C4H2+
51.023	62	C4H3+
53.0023	33	C3HO+
53.0386	48	C4H5+
55.0178	40	C3H3O+
57.0136	19	C3H2F+
62.0151	22	C5H2+
63.023	169	C5H3+
64.0308	31	C5H4+
65.0386	999	C5H5+
68.9946	54	CF3+
70.0214	16	C4H3F+
74.0152	65	C6H2+
75.0041	293	C3HF2+
75.0229	164	C6H3+
76.0181	28	C5H2N+
77.0385	35	C6H5+
78.0338	73	C5H4N+
79.0542	15	C6H7+
81.0335	50	C5H5O+
86.04	13	C4H5FN+
89.0386	34	C7H5+
90.0465	33	C7H6+
91.0543	385	C7H7+
92.0258	23	C6H4O+
95.0492	125	C6H7O+
97.0325	24	C5H4FN+
99.0041	82	C5HF2+
100.0122	47	C5H2F2+
103.0544	117	C8H7+
104.0131	170	C6H2NO+
111.0442	13	C6H7O2+
113.0387	64	C9H5+
114.0465	44	C9H6+
115.0542	27	C9H7+
119.0104	29	C5H2F3+
119.0365	19	C7H5NO+
123.0231	20	C10H3+
124.0193	64	C6H3FNO+
126.015	116	C6H2F2N+
127.0228	81	C6H3F2N+
130.0651	70	C9H8N+
131.0492	184	C9H7O+
132.057	48	C9H8O+
133.0445	74	C9H6F+
140.0496	186	C10H6N+
141.0574	337	C10H7N+
143.0286	34	C10H4F+
144.0257	21	C6H4F2NO+
145.0336	43	C6H5F2NO+
146.0213	110	C6H3F3N+
147.0293	24	C6H4F3N+
151.0354	87	C9H5F2+
158.0401	24	C10H5FN+
159.0481	26	C10H6FN+
164.0317	289	C6H5F3NO+
168.0444	68	C11H6NO+
169.0523	12	C11H7NO+
179.0186	43	C6H4F3NO2+
180.0382	10	C10H6F2O+
190.0459	62	C11H6F2N+
198.0524	55	C10H7F3N+
209.0446	48	C11H6F3N+
226.0481	20	C11H7F3NO+
254.0432	30	C12H7F3NO2+
