Mass spectrum: 3-Hydroxymethylmefenamic acid; LC-ESI-QFT; MS2; CE: 15%; R=17500; [M+H]+
Name: 3-Hydroxymethylmefenamic acid
Name: 3-Hydroxymethyl Mefenamic Acid
Name: 2-[3-(hydroxymethyl)-2-methylanilino]benzoic acid
Formula: C15H15NO3
Exact mass: 257.1051933
SMILES: CC1=C(C=CC=C1NC2=CC=CC=C2C(=O)O)CO
InChI: InChI=1S/C15H15NO3/c1-10-11(9-17)5-4-8-13(10)16-14-7-3-2-6-12(14)15(18)19/h2-8,16-17H,9H2,1H3,(H,18,19)
Instrument: Exploris 240 Orbitrap Thermo Scientific
Instrument type: LC-ESI-QFT
Ms type: MS2
Ion mode: POSITIVE
Ionization: ESI
Fragmentation mode: HCD
Collision energy: 15 % (nominal)
Resolution: 17500
Column name: XBridge C18 3.5um, 2.1x50mm, Waters
Retention time: 8.513 min
Base peak: 258.1122
Precursor m/z: 258.1125
Precursor type: [M+H]+
m/z	relative intensity	assigned
210.0913	21	C14H12NO+
222.0911	47	C15H12NO+
228.1019	5	C14H14NO2+
240.1018	999	C15H14NO2+
