Mass spectrum: Desacetylbisacodyl; LC-ESI-QFT; MS2; CE: 180%; R=17500; [M+H]+
Name: Desacetylbisacodyl
Name: Deacetylbisacodyl
Name: 4-[(4-hydroxyphenyl)-pyridin-2-ylmethyl]phenol
Formula: C18H15NO2
Exact mass: 277.1102787
SMILES: C1=CC=NC(=C1)C(C2=CC=C(C=C2)O)C3=CC=C(C=C3)O
InChI: InChI=1S/C18H15NO2/c20-15-8-4-13(5-9-15)18(17-3-1-2-12-19-17)14-6-10-16(21)11-7-14/h1-12,18,20-21H
Instrument: Exploris 240 Orbitrap Thermo Scientific
Instrument type: LC-ESI-QFT
Ms type: MS2
Ion mode: POSITIVE
Ionization: ESI
Fragmentation mode: HCD
Collision energy: 180 % (nominal)
Resolution: 17500
Column name: XBridge C18 3.5um, 2.1x50mm, Waters
Retention time: 3.446 min
Base peak: 278.117
Precursor m/z: 278.1176
Precursor type: [M+H]+
m/z	relative intensity	assigned
51.0229	128	C4H3+
53.0385	51	C4H5+
77.0385	191	C6H5+
78.0338	91	C5H4N+
78.0465	29	C6H6+
80.0496	30	C5H6N+
89.0386	159	C7H5+
90.0465	39	C7H6+
95.049	105	C6H7O+
96.0446	38	C5H6NO+
102.0465	120	C8H6+
103.0547	47	C8H7+
113.0387	64	C9H5+
114.0468	45	C9H6+
115.0543	126	C9H7+
117.0573	17	C8H7N+
127.0542	242	C10H7+
128.0497	213	C9H6N+
128.0621	121	C10H8+
129.0572	30	C9H7N+
139.0541	664	C11H7+
140.0496	328	C10H6N+
140.0621	29	C11H8+
141.0574	25	C10H7N+
145.0645	92	C10H9O+
146.0604	46	C9H8NO+
153.0575	150	C11H7N+
154.0651	999	C11H8N+
164.0496	46	C12H6N+
165.0575	60	C12H7N+
166.0654	346	C12H8N+
167.073	93	C12H9N+
182.0599	91	C12H8NO+
