Mass spectrum: para-Hydroxyatorvastatin; LC-ESI-QFT; MS2; CE: 75%; R=17500; [M+H]+
Name: para-Hydroxyatorvastatin
Name: 7-[2-(4-fluorophenyl)-4-[(4-hydroxyphenyl)carbamoyl]-3-phenyl-5-propan-2-ylpyrrol-1-yl]-3,5-dihydroxyheptanoic acid
Formula: C33H35FN2O6
Exact mass: 574.2479151
SMILES: CC(C)C1=C(C(=C(N1CCC(CC(CC(=O)O)O)O)C2=CC=C(C=C2)F)C3=CC=CC=C3)C(=O)NC4=CC=C(C=C4)O
InChI: InChI=1S/C33H35FN2O6/c1-20(2)31-30(33(42)35-24-12-14-25(37)15-13-24)29(21-6-4-3-5-7-21)32(22-8-10-23(34)11-9-22)36(31)17-16-26(38)18-27(39)19-28(40)41/h3-15,20,26-27,37-39H,16-19H2,1-2H3,(H,35,42)(H,40,41)
Instrument: Exploris 240 Orbitrap Thermo Scientific
Instrument type: LC-ESI-QFT
Ms type: MS2
Ion mode: POSITIVE
Ionization: ESI
Fragmentation mode: HCD
Collision energy: 75 % (nominal)
Resolution: 17500
Column name: XBridge C18 3.5um, 2.1x50mm, Waters
Retention time: 8.169 min
Base peak: 575.2547
Precursor m/z: 575.2552
Precursor type: [M+H]+
m/z	relative intensity	assigned
69.0335	10	C4H5O+
71.0127	20	C3H3O2+
71.0489	16	C4H7O+
77.0386	9	C6H5+
79.0542	55	C6H7+
81.0337	37	C5H5O+
83.0491	43	C5H7O+
91.0543	20	C7H7+
97.0283	10	C5H5O2+
101.0595	12	C5H9O2+
103.0542	9	C8H7+
104.0492	51	C7H6N+
108.0443	356	C6H6NO+
109.0446	26	C7H6F+
115.0541	65	C9H7+
117.057	33	C8H7N+
122.0402	51	C7H5FN+
127.0541	12	C10H7+
128.0621	18	C10H8+
129.0702	31	C10H9+
133.0448	64	C9H6F+
135.0479	16	C8H6FN+
145.065	6	C10H9O+
147.0606	20	C10H8F+
148.056	8	C9H7FN+
153.0699	15	C12H9+
154.0649	70	C11H8N+
155.0604	19	C10H7N2+
167.0731	10	C12H9N+
172.0556	34	C11H7FN+
180.0805	17	C13H10N+
198.071	13	C13H9FN+
202.0781	31	C16H10+
203.0857	64	C16H11+
209.0764	85	C15H10F+
217.0884	8	C16H11N+
218.0969	20	C13H13FNO+
221.0761	28	C16H10F+
230.0959	84	C17H12N+
233.0762	188	C17H10F+
235.0791	196	C16H10FN+
236.0869	27	C16H11FN+
238.1032	104	C16H13FN+
248.087	301	C17H11FN+
249.095	263	C17H12FN+
250.1027	999	C17H13FN+
251.1075	15	C14H16FO3+
252.1189	15	C17H15FN+
260.0877	19	C18H11FN+
261.0944	84	C18H12FN+
262.1027	130	C18H13FN+
263.1099	23	C18H14FN+
264.0821	58	C17H11FNO+
264.1186	50	C18H15FN+
274.1023	69	C19H13FN+
275.1103	42	C19H14FN+
276.0819	52	C18H11FNO+
276.1179	421	C19H15FN+
277.1259	21	C19H16FN+
286.1037	9	C20H13FN+
288.1172	48	C20H15FN+
290.0977	8	C19H13FNO+
290.1339	29	C20H17FN+
292.1507	9	C20H19FN+
300.1175	21	C21H15FN+
302.0973	13	C23H12N+
302.1342	58	C21H17FN+
362.1548	18	C26H20NO+
