Mass spectrum: Letrozole; LC-ESI-QFT; MS2; CE: 80%; R=15000; [M+H]+
Name: Letrozole
Name: 4-[(4-cyanophenyl)-(1,2,4-triazol-1-yl)methyl]benzonitrile
Formula: C17H11N5
Exact mass: 285.1014454
SMILES: C1=CC(=CC=C1C#N)C(C2=CC=C(C=C2)C#N)N3C=NC=N3
InChI: InChI=1S/C17H11N5/c18-9-13-1-5-15(6-2-13)17(22-12-20-11-21-22)16-7-3-14(10-19)4-8-16/h1-8,11-12,17H
Instrument: Exploris 240 Thermo Scientific
Instrument type: LC-ESI-QFT
Ms type: MS2
Ion mode: POSITIVE
Ionization: ESI
Fragmentation mode: HCD
Collision energy: 80 % (nominal)
Resolution: 15000
Column name: XBridge C18 3.5um, 2.1x50mm, Waters
Retention time: 5.301 min
Base peak: 286.1083
Precursor m/z: 286.1087
Precursor type: [M+H]+
m/z	relative intensity	assigned
63.0229	919	C5H3+
64.0181	255	C4H2N+
65.0386	128	C5H5+
74.0151	232	C6H2+
76.0309	102	C6H4+
87.0229	445	C7H3+
88.0181	179	C6H2N+
89.0386	324	C7H5+
90.0337	160	C6H4N+
112.0183	92	C8H2N+
113.0386	556	C9H5+
114.034	263	C8H4N+
115.0544	75	C9H7+
126.0465	113	C10H6+
137.0386	337	C11H5+
138.0342	154	C10H4N+
139.0543	40	C11H7+
140.0495	388	C10H6N+
150.0461	158	C12H6+
161.0387	372	C13H5+
163.0546	355	C13H7+
164.0494	326	C12H6N+
175.0419	44	C13H5N+
187.0415	115	C14H5N+
188.0493	901	C14H6N+
202.0775	999	C16H10+
