Mass spectrum: Valaciclovir; LC-ESI-QFT; MS2; CE: 15%; R=15000; [M+H]+
Name: Valaciclovir
Name: CID 5647
Name: 2-[(2-azanyl-6-oxidanylidene-1H-purin-9-yl)methoxy]ethyl (2S)-2-azanyl-3-methyl-butanoate
Formula: C13H20N6O4
Exact mass: 324.1546031
SMILES: CC(C)C(C(=O)OCCOCN1C=NC2=C1N=C(NC2=O)N)N
InChI: InChI=1S/C13H20N6O4/c1-7(2)8(14)12(21)23-4-3-22-6-19-5-16-9-10(19)17-13(15)18-11(9)20/h5,7-8H,3-4,6,14H2,1-2H3,(H3,15,17,18,20)
Instrument: Q Exactive
Instrument type: LC-ESI-QFT
Ms type: MS2
Ion mode: POSITIVE
Ionization: ESI
Fragmentation mode: HCD
Collision energy: 15 % (nominal)
Resolution: 15000
Column name: XBridge C18 3.5um, 2.1x50mm, Waters
Retention time: 1.938 min
Base peak: 256.9598
Precursor m/z: 325.1619
Precursor type: [M+H]+
Precursor intensity: 1278445.48
m/z	relative intensity	assigned
146.1175	85	C7H16NO2+
152.0567	999	C5H6N5O+
174.1123	88	C8H16NO3+
