Mass spectrum: Quinine; LC-ESI-QFT; MS2; CE: 150%; R=17500; [M+H]+
Name: Quinine
Name: Cinchonan-9-ol, 6`-methoxy-, (8alpha,9R)-
Name: (5-ethenyl-1-azabicyclo[2.2.2]octan-2-yl)-(6-methoxyquinolin-4-yl)methanol
Formula: C20H24N2O2
Exact mass: 324.183778
SMILES: COC1=CC2=C(C=CN=C2C=C1)C(C3CC4CCN3CC4C=C)O
InChI: InChI=1S/C20H24N2O2/c1-3-13-12-22-9-7-14(13)10-19(22)20(23)16-6-8-21-18-5-4-15(24-2)11-17(16)18/h3-6,8,11,13-14,19-20,23H,1,7,9-10,12H2,2H3
Instrument: Exploris 240 Orbitrap Thermo Scientific
Instrument type: LC-ESI-QFT
Ms type: MS2
Ion mode: POSITIVE
Ionization: ESI
Fragmentation mode: HCD
Collision energy: 150 % (nominal)
Resolution: 17500
Column name: XBridge C18 3.5um, 2.1x50mm, Waters
Retention time: 4.008 min
Base peak: 325.1906
Precursor m/z: 325.1911
Precursor type: [M+H]+
m/z	relative intensity	assigned
51.0229	188	C4H3+
53.0386	679	C4H5+
55.0541	265	C4H7+
56.0495	103	C3H6N+
65.0385	316	C5H5+
66.0464	146	C5H6+
67.0417	189	C4H5N+
67.0543	156	C5H7+
68.0493	186	C4H6N+
77.0385	779	C6H5+
78.0465	70	C6H6+
79.0542	623	C6H7+
80.0494	318	C5H6N+
81.0698	90	C6H9+
82.0653	149	C5H8N+
88.0308	65	C7H4+
89.0385	192	C7H5+
90.0463	172	C7H6+
91.0543	342	C7H7+
93.0574	97	C6H7N+
94.0653	105	C6H8N+
95.0493	237	C6H7O+
102.0465	365	C8H6+
103.0542	92	C8H7+
105.0448	203	C6H5N2+
106.0652	79	C7H8N+
114.0461	77	C9H6+
115.0544	355	C9H7+
116.026	65	C8H4O+
116.0494	137	C8H6N+
117.0573	999	C8H7N+
118.0648	79	C8H8N+
128.0494	180	C9H6N+
129.0571	265	C9H7N+
130.0648	310	C9H8N+
140.0496	138	C10H6N+
141.0572	388	C10H7N+
142.0654	397	C10H8N+
143.073	203	C10H9N+
144.081	47	C10H10N+
146.0603	69	C9H8NO+
153.0576	71	C11H7N+
154.0649	701	C11H8N+
155.0599	93	C10H7N2+
166.0646	173	C12H8N+
167.073	239	C12H9N+
168.0677	72	C11H8N2+
180.0815	107	C13H10N+
