Mass spectrum: Mefenpyr-diethyl; LC-ESI-QFT; MS2; CE: 120%; R=15000; [M+H]+
Name: Mefenpyr-diethyl
Name: diethyl 1-(2,4-dichlorophenyl)-5-methyl-4H-pyrazole-3,5-dicarboxylate
Formula: C16H18Cl2N2O4
Exact mass: 372.0643624
SMILES: CCOC(=O)C1=NN(C2=C(Cl)C=C(Cl)C=C2)C(C)(C1)C(=O)OCC
InChI: InChI=1S/C16H18Cl2N2O4/c1-4-23-14(21)12-9-16(3,15(22)24-5-2)20(19-12)13-7-6-10(17)8-11(13)18/h6-8H,4-5,9H2,1-3H3
Instrument: Q Exactive Plus
Instrument type: LC-ESI-QFT
Ms type: MS2
Ion mode: POSITIVE
Ionization: ESI
Fragmentation mode: HCD
Collision energy: 120 % (nominal)
Resolution: 15000
Column name: XBridge C18 3.5um, 2.1x50mm, Waters
Retention time: 11.907 min
Base peak: 373.0719
Precursor m/z: 373.0716
Precursor type: [M+H]+
Precursor intensity: 306650994.19
m/z	relative intensity	assigned
62.0151	11	C5H2+
63.0229	49	C5H3+
72.9839	287	C3H2Cl+
74.015	429	C6H2+
75.0228	41	C6H3+
82.9449	254	CHCl2+
84.9839	32	C4H2Cl+
86.9632	193	C3ClO+
88.0179	11	C6H2N+
89.0385	18	C7H5+
90.0338	44	C6H4N+
96.984	45	C5H2Cl+
98.9996	62	C5H4Cl+
106.945	60	C3HCl2+
108.984	864	C6H2Cl+
109.9918	38	C6H3Cl+
114.0338	27	C8H4N+
123.9948	32	C6H3ClN+
125.0027	137	C6H4ClN+
126.9943	22	C6H4ClO+
127.0417	27	C9H5N+
128.0023	26	C6H5ClO+
128.0494	44	C9H6N+
132.9606	999	C5H3Cl2+
144.9606	77	C6H3Cl2+
151.0183	17	C8H6ClN+
155.0603	38	C10H7N2+
160.9792	13	C6H5Cl2N+
162.9713	39	C6H5Cl2O+
163.0181	15	C9H6ClN+
164.0259	41	C9H7ClN+
172.9667	191	C6H3Cl2N2+
189.0213	84	C10H6ClN2+
