Mass spectrum: Abacavir 5`-carboxylate; LC-ESI-QFT; MS2; CE: 75%; R=17500; [M+H]+
Name: Abacavir 5`-carboxylate
Name: 4-[2-amino-6-(cyclopropylamino)purin-9-yl]cyclopent-2-ene-1-carboxylic acid
Formula: C14H16N6O2
Exact mass: 300.1334738
SMILES: C1CC1NC2=C3C(=NC(=N2)N)N(C=N3)C4CC(C=C4)C(=O)O
InChI: InChI=1S/C14H16N6O2/c15-14-18-11(17-8-2-3-8)10-12(19-14)20(6-16-10)9-4-1-7(5-9)13(21)22/h1,4,6-9H,2-3,5H2,(H,21,22)(H3,15,17,18,19)
Instrument: Exploris 240 Orbitrap Thermo Scientific
Instrument type: LC-ESI-QFT
Ms type: MS2
Ion mode: POSITIVE
Ionization: ESI
Fragmentation mode: HCD
Collision energy: 75 % (nominal)
Resolution: 17500
Column name: XBridge C18 3.5um, 2.1x50mm, Waters
Retention time: 3.369 min
Base peak: 301.1404
Precursor m/z: 301.1408
Precursor type: [M+H]+
m/z	relative intensity	assigned
55.0544	44	C4H7+
56.0494	19	C3H6N+
58.0651	370	C3H8N+
65.0386	173	C5H5+
67.0542	627	C5H7+
83.0491	168	C5H7O+
83.0601	32	C4H7N2+
93.0333	76	C6H5O+
107.0356	30	C4H3N4+
108.0432	42	C4H4N4+
108.0555	17	C5H6N3+
109.0508	333	C4H5N4+
111.0437	59	C6H7O2+
119.035	27	C5H3N4+
120.0554	23	C6H6N3+
122.0711	49	C6H8N3+
134.0461	625	C5H4N5+
135.0539	9	C5H5N5+
136.0621	55	C5H6N5+
137.0462	22	C5H5N4O+
147.0664	75	C7H7N4+
148.0615	13	C6H6N5+
149.0689	20	C6H7N5+
149.0821	154	C7H9N4+
150.0648	999	C5H6N6+
151.0731	43	C5H7N6+
163.0723	69	C6H7N6+
164.0931	115	C7H10N5+
174.0774	655	C8H8N5+
175.0727	45	C7H7N6+
191.1039	771	C8H11N6+
