Mass spectrum: Imidacloprid; LC-ESI-QFT; MS2; CE: 90%; R=15000; [M+H]+
Name: Imidacloprid
Name: N-[1-[(6-chloro-3-pyridinyl)methyl]-4,5-dihydroimidazol-2-yl]nitramide
Name: N-[1-[(6-chloropyridin-3-yl)methyl]-4,5-dihydroimidazol-2-yl]nitramide
Formula: C9H10ClN5O2
Exact mass: 255.0523022
SMILES: [O-][N+](=O)\N=C1/NCCN1CC1=CN=C(Cl)C=C1
InChI: InChI=1S/C9H10ClN5O2/c10-8-2-1-7(5-12-8)6-14-4-3-11-9(14)13-15(16)17/h1-2,5H,3-4,6H2,(H,11,13)
Instrument: Q Exactive Plus
Instrument type: LC-ESI-QFT
Ms type: MS2
Ion mode: POSITIVE
Ionization: ESI
Fragmentation mode: HCD
Collision energy: 90 % (nominal)
Resolution: 15000
Column name: XBridge C18 3.5um, 2.1x50mm, Waters
Retention time: 4.086 min
Base peak: 256.0597
Precursor m/z: 256.0596
Precursor type: [M+H]+
Precursor intensity: 237713302.75
m/z	relative intensity	assigned
53.0388	11	C4H5+
54.0339	23	C3H4N+
56.0495	143	C3H6N+
57.0448	58	C2H5N2+
63.023	27	C5H3+
65.0386	85	C5H5+
69.0447	77	C3H5N2+
70.029	13	C3H4NO+
72.9841	32	C3H2Cl+
78.0339	38	C5H4N+
79.0543	30	C6H7+
80.0494	114	C5H6N+
84.0557	507	C3H6N3+
90.0339	124	C6H4N+
91.0417	33	C6H5N+
92.037	23	C5H4N2+
92.0495	103	C6H6N+
93.0448	30	C5H5N2+
93.0573	67	C6H7N+
95.0604	24	C5H7N2+
96.0445	96	C5H6NO+
98.0713	18	C4H8N3+
98.9996	90	C5H4Cl+
99.0555	38	C4H7N2O+
104.0496	79	C7H6N+
105.0448	294	C6H5N2+
106.0651	185	C7H8N+
107.0605	166	C6H7N2+
108.0679	49	C6H8N2+
109.0523	19	C6H7NO+
109.0636	37	C5H7N3+
110.06	32	C6H8NO+
113.0026	46	C5H4ClN+
114.0106	52	C5H5ClN+
117.0446	24	C7H5N2+
117.0576	18	C8H7N+
118.0401	15	C6H4N3+
118.0528	94	C7H6N2+
119.048	66	C6H5N3+
119.0605	190	C7H7N2+
120.0557	199	C6H6N3+
121.0397	28	C6H5N2O+
121.0632	24	C6H7N3+
123.0553	49	C6H7N2O+
126.0106	184	C6H5ClN+
127.0184	100	C6H6ClN+
128.0261	102	C6H7ClN+
130.0404	20	C7H4N3+
131.0605	179	C8H7N2+
132.056	87	C7H6N3+
132.0677	72	C8H8N2+
133.0636	264	C7H7N3+
133.076	127	C8H9N2+
134.0711	150	C7H8N3+
135.0555	41	C7H7N2O+
135.0792	59	C7H9N3+
139.0063	51	C6H4ClN2+
140.0263	31	C7H7ClN+
141.0214	168	C6H6ClN2+
144.0209	33	C6H7ClNO+
145.0511	53	C7H5N4+
146.0589	40	C7H6N4+
146.0711	298	C8H8N3+
147.0666	416	C7H7N4+
148.0867	183	C8H10N3+
154.0168	15	C6H5ClN3+
157.0633	74	C9H7N3+
158.0587	20	C8H6N4+
158.0713	206	C9H8N3+
159.067	30	C8H7N4+
159.0791	387	C9H9N3+
166.0166	105	C7H5ClN3+
167.0373	76	C8H8ClN2+
173.0822	635	C9H9N4+
174.09	264	C9H10N4+
175.0979	462	C9H11N4+
180.0194	99	C7H5ClN4+
180.0324	17	C8H7ClN3+
181.0276	98	C7H6ClN4+
191.0927	83	C9H11N4O+
194.0485	28	C9H9ClN3+
208.051	146	C9H9ClN4+
209.0589	999	C9H10ClN4+
