Mass spectrum: Hydroxytorasemide; LC-ESI-QFT; MS2; CE: 90%; R=17500; [M+H]+
Name: Hydroxytorasemide
Name: Torasemide metabolite M1
Name: 1-[4-[3-(hydroxymethyl)anilino]pyridin-3-yl]sulfonyl-3-propan-2-ylurea
Formula: C16H20N4O4S
Exact mass: 364.1205261
SMILES: CC(C)NC(=O)NS(=O)(=O)C1=C(C=CN=C1)NC2=CC=CC(=C2)CO
InChI: InChI=1S/C16H20N4O4S/c1-11(2)18-16(22)20-25(23,24)15-9-17-7-6-14(15)19-13-5-3-4-12(8-13)10-21/h3-9,11,21H,10H2,1-2H3,(H,17,19)(H2,18,20,22)
Instrument: Exploris 240 Orbitrap Thermo Scientific
Instrument type: LC-ESI-QFT
Ms type: MS2
Ion mode: POSITIVE
Ionization: ESI
Fragmentation mode: HCD
Collision energy: 90 % (nominal)
Resolution: 17500
Column name: XBridge C18 3.5um, 2.1x50mm, Waters
Retention time: 4.126 min
Base peak: 365.1276
Precursor m/z: 365.1278
Precursor type: [M+H]+
m/z	relative intensity	assigned
67.0416	31	C4H5N+
81.0446	19	C4H5N2+
89.0382	13	C7H5+
98.0057	22	C4H4NS+
103.0547	7	C8H7+
115.0543	347	C9H7+
116.0494	13	C8H6N+
117.0578	15	C8H7N+
124.0094	8	C5H4N2S+
125.0169	62	C5H5N2S+
127.0546	21	C10H7+
128.0498	66	C9H6N+
130.0655	10	C9H8N+
137.0167	24	C6H5N2S+
140.0495	26	C10H6N+
141.0574	19	C10H7N+
142.0652	125	C10H8N+
145.0647	7	C10H9O+
146.06	17	C9H8NO+
150.0249	8	C7H6N2S+
152.0042	22	C6H4N2OS+
154.0649	83	C11H8N+
155.0605	53	C10H7N2+
156.0679	18	C10H8N2+
157.076	13	C10H9N2+
167.0603	24	C3H11N4O2S+
168.0683	457	C11H8N2+
169.0761	999	C11H9N2+
179.0607	14	C6H13NO3S+
180.068	25	C12H8N2+
181.0761	422	C12H9N2+
182.084	107	C12H10N2+
184.0629	30	C11H8N2O+
185.0707	36	C11H9N2O+
187.0324	35	C10H7N2S+
189.0488	25	C10H9N2S+
197.0709	72	C12H9N2O+
199.0868	197	C12H11N2O+
200.041	9	C11H8N2S+
215.0815	20	C12H11N2O2+
216.0347	9	C11H8N2OS+
233.039	19	C11H9N2O2S+
