Mass spectrum: BifenoxH; LC-ESI-QFT; MS2; CE: 60%; R=15000; [M+H]+
Name: BifenoxH
Name: Bifenox
Name: methyl 5-(2,4-dichlorophenoxy)-2-nitrobenzoate
Formula: C14H9Cl2NO5
Exact mass: 340.9857777
SMILES: COC(=O)C1=C(C=CC(=C1)OC2=C(C=C(C=C2)Cl)Cl)[N+](=O)[O-]
InChI: InChI=1S/C14H9Cl2NO5/c1-21-14(18)10-7-9(3-4-12(10)17(19)20)22-13-5-2-8(15)6-11(13)16/h2-7H,1H3
Instrument: Q Exactive Plus
Instrument type: LC-ESI-QFT
Ms type: MS2
Ion mode: POSITIVE
Ionization: ESI
Fragmentation mode: HCD
Collision energy: 60 % (nominal)
Resolution: 15000
Column name: XBridge C18 3.5um, 2.1x50mm, Waters
Retention time: 12.553 min
Base peak: 164.9845
Precursor m/z: 341.9931
Precursor type: [M+H]+
Precursor intensity: 10833477.93
m/z	relative intensity	assigned
50.015	19	C4H2+
51.0228	30	C4H3+
67.0179	39	C4H3O+
68.9971	105	C3HO2+
72.9841	25	C3H2Cl+
76.0181	117	C5H2N+
77.0258	39	C5H3N+
78.0338	62	C5H4N+
84.9839	38	C4H2Cl+
86.9632	107	C3ClO+
104.0131	235	C6H2NO+
108.984	265	C6H2Cl+
126.9944	41	C6H4ClO+
128.0022	52	C6H5ClO+
132.9605	999	C5H3Cl2+
140.0494	238	C10H6N+
144.9606	109	C6H3Cl2+
146.9994	51	C9H4Cl+
157.0522	21	C10H7NO+
160.9556	71	C6H3Cl2O+
162.9709	80	C6H5Cl2O+
171.9921	20	C7H5ClO3+
172.9667	365	C9ClNO+
173.0149	87	C11H6Cl+
174.0104	142	C10H5ClN+
175.0183	77	C10H6ClN+
176.0024	44	C10H5ClO+
182.9761	111	C9H5Cl2+
188.9503	671	C7H3Cl2O2+
203.0131	202	C11H6ClNO+
