Mass spectrum: Metolachlor; LC-ESI-QFT; MS2; CE: 120%; R=15000; [M+H]+
Name: Metolachlor
Name: 2-chloro-N-(2-ethyl-6-methylphenyl)-N-(1-methoxypropan-2-yl)acetamide
Formula: C15H22ClNO2
Exact mass: 283.1339066
SMILES: CCC1=C(N(C(C)COC)C(=O)CCl)C(C)=CC=C1
InChI: InChI=1S/C15H22ClNO2/c1-5-13-8-6-7-11(2)15(13)17(14(18)9-16)12(3)10-19-4/h6-8,12H,5,9-10H2,1-4H3
Instrument: Q Exactive Plus
Instrument type: LC-ESI-QFT
Ms type: MS2
Ion mode: POSITIVE
Ionization: ESI
Fragmentation mode: HCD
Collision energy: 120 % (nominal)
Resolution: 15000
Column name: XBridge C18 3.5um, 2.1x50mm, Waters
Retention time: 10.500 min
Base peak: 284.1412
Precursor m/z: 284.1412
Precursor type: [M+H]+
Precursor intensity: 759501235.91
m/z	relative intensity	assigned
51.0229	31	C4H3+
53.0386	64	C4H5+
65.0386	250	C5H5+
76.9789	34	C2H2ClO+
77.0385	48	C6H5+
78.0464	85	C6H6+
79.0542	89	C6H7+
91.0542	999	C7H7+
93.0573	268	C6H7N+
93.0698	58	C7H9+
95.0491	209	C6H7O+
102.0466	16	C8H6+
103.0542	128	C8H7+
104.0496	26	C7H6N+
104.0619	68	C8H8+
105.0699	91	C8H9+
106.0651	105	C7H8N+
107.0729	50	C7H9N+
108.0806	80	C7H10N+
115.0542	321	C9H7+
116.0621	40	C9H8+
117.0573	224	C8H7N+
117.0697	107	C9H9+
118.0651	272	C8H8N+
119.073	242	C8H9N+
119.0855	16	C9H11+
120.0807	73	C8H10N+
128.062	27	C10H8+
130.0651	385	C9H8N+
131.0729	249	C9H9N+
132.0807	366	C9H10N+
133.0885	86	C9H11N+
134.0962	29	C9H12N+
142.065	16	C10H8N+
143.073	114	C10H9N+
144.0808	313	C10H10N+
145.0886	94	C10H11N+
146.0964	74	C10H12N+
158.0964	45	C11H12N+
