Mass spectrum: Boscalid; LC-ESI-QFT; MS2; CE: 45%; R=15000; [M-H]-
Name: Boscalid
Name: 2-chloro-N-[2-(4-chlorophenyl)phenyl]pyridine-3-carboxamide
Formula: C18H12Cl2N2O
Exact mass: 342.0326684
SMILES: ClC1=CC=C(C=C1)C1=C(NC(=O)C2=C(Cl)N=CC=C2)C=CC=C1
InChI: InChI=1S/C18H12Cl2N2O/c19-13-9-7-12(8-10-13)14-4-1-2-6-16(14)22-18(23)15-5-3-11-21-17(15)20/h1-11H,(H,22,23)
Instrument: Q Exactive Plus
Instrument type: LC-ESI-QFT
Ms type: MS2
Ion mode: NEGATIVE
Ionization: ESI
Fragmentation mode: HCD
Collision energy: 45 % (nominal)
Resolution: 15000
Column name: XBridge C18 3.5um, 2.1x50mm, Waters
Retention time: 9.192 min
Base peak: 341.0255
Precursor m/z: 341.0254
Precursor type: [M-H]-
Precursor intensity: 17343586.28
m/z	relative intensity	assigned
111.996	999	C5H3ClN-
155.9858	51	C3H6Cl2N2O-
228.0223	48	C13H7ClNO-
