Mass spectrum: Chloridazon; LC-ESI-QFT; MS2; CE: 45%; R=15000; [M-H]-
Name: Chloridazon
Name: 5-amino-4-chloro-2-phenylpyridazin-3-one
Formula: C10H8ClN3O
Exact mass: 221.0355896
SMILES: NC1=C(Cl)C(=O)N(N=C1)C1=CC=CC=C1
InChI: InChI=1S/C10H8ClN3O/c11-9-8(12)6-13-14(10(9)15)7-4-2-1-3-5-7/h1-6H,12H2
Instrument: Q Exactive Plus
Instrument type: LC-ESI-QFT
Ms type: MS2
Ion mode: NEGATIVE
Ionization: ESI
Fragmentation mode: HCD
Collision energy: 45 % (nominal)
Resolution: 15000
Column name: XBridge C18 3.5um, 2.1x50mm, Waters
Retention time: 4.540 min
Base peak: 220.0283
Precursor m/z: 220.0283
Precursor type: [M-H]-
Precursor intensity: 122311353.56
m/z	relative intensity	assigned
65.0145	288	C3HN2-
65.9985	166	C3NO-
73.9803	546	C2HClN-
74.9643	999	C2ClO-
92.0506	15	C6H6N-
100.9674	315	C3ClNO-
100.9913	145	C3H2ClN2-
117.046	283	C7H5N2-
144.0567	83	C8H6N3-
150.0116	312	C8H5ClN-
184.0514	62	C10H6N3O-
220.0284	946	C10H7ClN3O-
