Mass spectrum: Propyzamide; LC-ESI-QFT; MS2; CE: 90%; R=15000; [M+H]+
Name: Propyzamide
Name: 3,5-dichloro-N-(2-methylbut-3-yn-2-yl)benzamide
Formula: C12H11Cl2NO
Exact mass: 255.0217693
SMILES: CC(C)(NC(=O)C1=CC(Cl)=CC(Cl)=C1)C#C
InChI: InChI=1S/C12H11Cl2NO/c1-4-12(2,3)15-11(16)8-5-9(13)7-10(14)6-8/h1,5-7H,2-3H3,(H,15,16)
Instrument: Q Exactive Plus
Instrument type: LC-ESI-QFT
Ms type: MS2
Ion mode: POSITIVE
Ionization: ESI
Fragmentation mode: HCD
Collision energy: 90 % (nominal)
Resolution: 15000
Column name: XBridge C18 3.5um, 2.1x50mm, Waters
Retention time: 9.576 min
Base peak: 256.0291
Precursor m/z: 256.029
Precursor type: [M+H]+
Precursor intensity: 427532914.61
m/z	relative intensity	assigned
51.023	28	C4H3+
62.9631	13	CClO+
65.0386	187	C5H5+
67.0543	163	C5H7+
74.0151	30	C6H2+
84.984	155	C4H2Cl+
86.9633	144	C3ClO+
98.9995	18	C5H4Cl+
108.984	352	C6H2Cl+
120.9606	63	C4H3Cl2+
126.9946	135	C6H4ClO+
128.0024	157	C6H5ClO+
129.0102	39	C6H6ClO+
139.0059	56	C9HNO+
144.9607	162	C6H3Cl2+
145.0051	42	C3H9Cl2NO+
162.9711	314	C6H5Cl2O+
172.9548	274	C7H3Cl2O+
172.9668	999	C9ClNO+
