Mass spectrum: 8-3-FTCA; LC-ESI-QFT; MS2; CE: 60%; R=17500; [M-H]-
Name: 8-3-FTCA
Name: 4,4,5,5,6,6,7,7,8,8,9,9,10,10,11,11,11-heptadecafluoroundecanoic acid
Formula: C11H5F17O2
Exact mass: 492.00180914
SMILES: C(CC(C(C(C(C(C(C(C(F)(F)F)(F)F)(F)F)(F)F)(F)F)(F)F)(F)F)(F)F)C(=O)O
InChI: InChI=1S/C11H5F17O2/c12-4(13,2-1-3(29)30)5(14,15)6(16,17)7(18,19)8(20,21)9(22,23)10(24,25)11(26,27)28/h1-2H2,(H,29,30)
Instrument: Exploris 240 Orbitrap Thermo Scientific
Instrument type: LC-ESI-QFT
Ms type: MS2
Ion mode: NEGATIVE
Ionization: ESI
Fragmentation mode: HCD
Collision energy: 60 % (nominal)
Resolution: 17500
Column name: XBridge C18 3.5um, 2.1x50mm, Waters
Retention time: 14.771 min
Base peak: 490.9941
Precursor m/z: 490.9945
Precursor type: [M-H]-
m/z	relative intensity	assigned
62.9889	296	CFO2-
68.9956	188	CF3-
92.9959	164	C3F3-
97.9978	120	C5F2-
142.9928	125	C4F5-
147.9943	156	C6F4-
166.9927	124	C6F5-
197.9906	420	C7F6-
216.9893	268	C7F7-
266.9868	129	C5HF10O-
297.9841	189	CHF15-
316.9828	894	CHF16-
366.9796	999	C10F13-
