Mass spectrum: ortho-Hydroxyatorvastatin; LC-ESI-QFT; MS2; CE: 120%; R=17500; [M-H]-
Name: ortho-Hydroxyatorvastatin
Name: Orthohydroxyatorvastatin
Name: (3R,5R)-7-[2-(4-fluorophenyl)-4-[(2-hydroxyphenyl)carbamoyl]-3-phenyl-5-propan-2-ylpyrrol-1-yl]-3,5-dihydroxyheptanoic acid
Formula: C33H35FN2O6
Exact mass: 574.2479151
SMILES: CC(C1=C(C(NC2=CC=CC=C2O)=O)C(C3=CC=CC=C3)=C(C4=CC=C(F)C=C4)N1CC[C@@H](O)C[C@@H](O)CC(O)=O)C
InChI: InChI=1S/C33H35FN2O6/c1-20(2)31-30(33(42)35-26-10-6-7-11-27(26)39)29(21-8-4-3-5-9-21)32(22-12-14-23(34)15-13-22)36(31)17-16-24(37)18-25(38)19-28(40)41/h3-15,20,24-25,37-39H,16-19H2,1-2H3,(H,35,42)(H,40,41)/t24-,25-/m1/s1
Instrument: Exploris 240 Orbitrap Thermo Scientific
Instrument type: LC-ESI-QFT
Ms type: MS2
Ion mode: NEGATIVE
Ionization: ESI
Fragmentation mode: HCD
Collision energy: 120 % (nominal)
Resolution: 17500
Column name: XBridge C18 3.5um, 2.1x50mm, Waters
Retention time: 9.939 min
Base peak: 573.2405
Precursor m/z: 573.2406
Precursor type: [M-H]-
m/z	relative intensity	assigned
91.0188	27	C6H3O-
107.0377	175	C6H5NO-
108.0455	259	C6H6NO-
134.0248	283	C7H4NO2-
141.0712	23	C11H9-
186.0728	20	C12H9FN-
242.0975	31	C18H12N-
260.0881	382	C18H11FN-
262.1037	999	C18H13FN-
287.0983	119	C19H12FN2-
