Mass spectrum: 4,4`-Oxydianiline; LC-ESI-QFT; MS2; CE: 120%; R=15000; [M+H]+
Name: 4,4`-Oxydianiline
Name: 4-(4-aminophenoxy)aniline
Formula: C12H12N2O
Exact mass: 200.094963
SMILES: NC1=CC=C(OC2=CC=C(N)C=C2)C=C1
InChI: InChI=1S/C12H12N2O/c13-9-1-5-11(6-2-9)15-12-7-3-10(14)4-8-12/h1-8H,13-14H2
Instrument: Exploris 240 Thermo Scientific
Instrument type: LC-ESI-QFT
Ms type: MS2
Ion mode: POSITIVE
Ionization: ESI
Fragmentation mode: HCD
Collision energy: 120 % (nominal)
Resolution: 15000
Column name: XBridge C18 3.5um, 2.1x50mm, Waters
Retention time: 1.535 min
Base peak: 201.1018
Precursor m/z: 201.1022
Precursor type: [M+H]+
m/z	relative intensity	assigned
53.0385	172	C4H5+
65.0385	44	C5H5+
66.0463	56	C5H6+
76.0307	48	C6H4+
80.0494	999	C5H6N+
92.0493	23	C6H6N+
93.0572	140	C6H7N+
103.054	22	C8H7+
108.0443	443	C6H6NO+
115.054	12	C9H7+
128.0618	93	C10H8+
130.0649	55	C9H8N+
139.0541	22	C11H7+
155.0603	17	C10H7N2+
156.0806	10	C11H10N+
