Mass spectrum: Prothioconazole; LC-ESI-QFT; MS2; CE: 45%; R=15000; [M+H]+
Name: Prothioconazole
Name: 2-[2-(1-chlorocyclopropyl)-3-(2-chlorophenyl)-2-hydroxypropyl]-1H-1,2,4-triazole-3-thione
Formula: C14H15Cl2N3OS
Exact mass: 343.0312885
SMILES: C1CC1(C(CC2=CC=CC=C2Cl)(CN3C(=S)N=CN3)O)Cl
InChI: InChI=1S/C14H15Cl2N3OS/c15-11-4-2-1-3-10(11)7-14(20,13(16)5-6-13)8-19-12(21)17-9-18-19/h1-4,9,20H,5-8H2,(H,17,18,21)
Instrument: Exploris 240 Thermo Scientific
Instrument type: LC-ESI-QFT
Ms type: MS2
Ion mode: POSITIVE
Ionization: ESI
Fragmentation mode: HCD
Collision energy: 45 % (nominal)
Resolution: 15000
Column name: XBridge C18 3.5um, 2.1x50mm, Waters
Retention time: 11.770 min
Base peak: 344.0382
Precursor m/z: 344.0386
Precursor type: [M+H]+
m/z	relative intensity	assigned
55.0292	28	C2H3N2+
62.9995	17	C2H4Cl+
74.9995	64	C3H4Cl+
102.0119	624	C2H4N3S+
114.0119	589	C3H4N3S+
125.0151	864	C7H6Cl+
149.015	172	C9H6Cl+
153.0696	288	CH16ClN3OS+
154.0775	813	C12H10+
155.0857	22	C12H11+
158.9765	40	C7H5Cl2+
162.023	180	C10H7Cl+
163.0307	271	C10H8Cl+
166.0429	208	C7H8N3S+
189.0462	999	C12H10Cl+
190.0539	120	C12H11Cl+
196.9916	267	C10H7Cl2+
225.0235	119	C12H11Cl2+
290.051	85	C14H13ClN3S+
326.0279	59	C14H14Cl2N3S+
