Mass spectrum: Prosulfuron; LC-ESI-QFT; MS2; CE: 150%; R=15000; [M-H]-
Name: Prosulfuron
Name: 1-(4-methoxy-6-methyl-1,3,5-triazin-2-yl)-3-[2-(3,3,3-trifluoropropyl)phenyl]sulfonylurea
Formula: C15H16F3N5O4S
Exact mass: 419.0875097
SMILES: COC1=NC(C)=NC(NC(=O)NS(=O)(=O)C2=C(CCC(F)(F)F)C=CC=C2)=N1
InChI: InChI=1S/C15H16F3N5O4S/c1-9-19-12(22-14(20-9)27-2)21-13(24)23-28(25,26)11-6-4-3-5-10(11)7-8-15(16,17)18/h3-6H,7-8H2,1-2H3,(H2,19,20,21,22,23,24)
Instrument: Q Exactive Plus
Instrument type: LC-ESI-QFT
Ms type: MS2
Ion mode: NEGATIVE
Ionization: ESI
Fragmentation mode: HCD
Collision energy: 150 % (nominal)
Resolution: 15000
Column name: XBridge C18 3.5um, 2.1x50mm, Waters
Retention time: 9.096 min
Base peak: 418.0802
Precursor m/z: 418.0802
Precursor type: [M-H]-
Precursor intensity: 208027047.98
m/z	relative intensity	assigned
55.03	26	C2H3N2-
61.9705	14	NOS-
63.9624	14	O2S-
64.0066	36	C3N2-
65.0145	632	C3HN2-
66.0097	999	C2N3-
82.041	30	C3H4N3-
107.0362	96	C4H3N4-
