Mass spectrum: 4-Desmethyltrimethoprim; LC-ESI-QFT; MS2; CE: 75%; R=17500; [M+H]+
Name: 4-Desmethyltrimethoprim
Name: 4-((2,4-Diaminopyrimidin-5-yl)methyl)-2,6-dimethoxyphenol
Name: 4-[(2,4-diaminopyrimidin-5-yl)methyl]-2,6-dimethoxyphenol
Formula: C13H16N4O3
Exact mass: 276.1222404
SMILES: COC1=CC(=CC(=C1O)OC)CC2=CN=C(N=C2N)N
InChI: InChI=1S/C13H16N4O3/c1-19-9-4-7(5-10(20-2)11(9)18)3-8-6-16-13(15)17-12(8)14/h4-6,18H,3H2,1-2H3,(H4,14,15,16,17)
Instrument: Exploris 240 Orbitrap Thermo Scientific
Instrument type: LC-ESI-QFT
Ms type: MS2
Ion mode: POSITIVE
Ionization: ESI
Fragmentation mode: HCD
Collision energy: 75 % (nominal)
Resolution: 17500
Column name: XBridge C18 3.5um, 2.1x50mm, Waters
Retention time: 2.197 min
Base peak: 277.1293
Precursor m/z: 277.1295
Precursor type: [M+H]+
m/z	relative intensity	assigned
60.0556	7	CH6N3+
81.0447	220	C4H5N2+
110.0586	71	C4H6N4+
111.0665	23	C4H7N4+
123.0665	861	C5H7N4+
124.0745	31	C5H8N4+
146.0845	6	C9H10N2+
147.0669	6	C7H7N4+
148.074	16	C7H8N4+
151.0395	13	C8H7O3+
167.0702	14	C9H11O3+
173.083	28	C11H11NO+
187.0979	128	C10H11N4+
188.106	33	C10H12N4+
203.0932	15	C10H11N4O+
215.0918	27	C11H11N4O+
216.1007	76	C11H12N4O+
217.1087	11	C13H15NO2+
219.0878	263	C10H11N4O2+
227.0926	7	C12H11N4O+
231.0877	78	C11H11N4O2+
232.0956	40	C11H12N4O2+
233.1035	96	C11H13N4O2+
243.0869	15	C12H11N4O2+
245.103	45	C12H13N4O2+
247.0831	48	C11H11N4O3+
261.0983	999	C12H13N4O3+
262.1049	15	C12H14N4O3+
