Mass spectrum: Iprovalicarb; LC-ESI-QFT; MS2; CE: 150%; R=15000; [M+H]+
Name: Iprovalicarb
Name: Isopropyl (3-methyl-1-{[1-(4-methylphenyl)ethyl]amino}-1-oxobutan-2-yl)carbamate
Name: propan-2-yl N-[3-methyl-1-[1-(4-methylphenyl)ethylamino]-1-oxobutan-2-yl]carbamate
Formula: C18H28N2O3
Exact mass: 320.2099928
SMILES: CC1=CC=C(C=C1)C(C)NC(=O)C(C(C)C)NC(=O)OC(C)C
InChI: InChI=1S/C18H28N2O3/c1-11(2)16(20-18(22)23-12(3)4)17(21)19-14(6)15-9-7-13(5)8-10-15/h7-12,14,16H,1-6H3,(H,19,21)(H,20,22)
Instrument: Exploris 240 Thermo Scientific
Instrument type: LC-ESI-QFT
Ms type: MS2
Ion mode: POSITIVE
Ionization: ESI
Fragmentation mode: HCD
Collision energy: 150 % (nominal)
Resolution: 15000
Column name: XBridge C18 3.5um, 2.1x50mm, Waters
Retention time: 9.865 min
Base peak: 321.2171
Precursor m/z: 321.2173
Precursor type: [M+H]+
m/z	relative intensity	assigned
51.0229	127	C4H3+
53.0387	60	C4H5+
55.0542	136	C4H7+
63.023	29	C5H3+
65.0386	583	C5H5+
77.0386	405	C6H5+
78.0465	224	C6H6+
79.0542	47	C6H7+
91.0542	999	C7H7+
95.0492	272	C6H7O+
102.0464	22	C8H6+
103.0542	230	C8H7+
104.0621	185	C8H8+
105.0447	138	C6H5N2+
115.0543	163	C9H7+
117.07	115	C9H9+
