Mass spectrum: Fluralaner; LC-ESI-QFT; MS2; CE: 150%; R=17500; [M+H]+
Name: Fluralaner
Name: 4-[5-(3,5-dichlorophenyl)-5-(trifluoromethyl)-4H-1,2-oxazol-3-yl]-2-methyl-N-[2-oxo-2-(2,2,2-trifluoroethylamino)ethyl]benzamide
Formula: C22H17Cl2F6N3O3
Exact mass: 555.055116084
SMILES: CC1=C(C=CC(=C1)C2=NOC(C2)(C3=CC(=CC(=C3)Cl)Cl)C(F)(F)F)C(=O)NCC(=O)NCC(F)(F)F
InChI: InChI=1S/C22H17Cl2F6N3O3/c1-11-4-12(2-3-16(11)19(35)31-9-18(34)32-10-21(25,26)27)17-8-20(36-33-17,22(28,29)30)13-5-14(23)7-15(24)6-13/h2-7H,8-10H2,1H3,(H,31,35)(H,32,34)
Instrument: Exploris 240 Orbitrap Thermo Scientific
Instrument type: LC-ESI-QFT
Ms type: MS2
Ion mode: POSITIVE
Ionization: ESI
Fragmentation mode: HCD
Collision energy: 150 % (nominal)
Resolution: 17500
Column name: XBridge C18 3.5um, 2.1x50mm, Waters
Retention time: 13.351 min
Base peak: 556.0624
Precursor m/z: 556.0624
Precursor type: [M+H]+
m/z	relative intensity	assigned
62.0151	55	C5H2+
63.0229	338	C5H3+
64.0308	40	C5H4+
65.0387	60	C5H5+
74.0151	442	C6H2+
75.023	218	C6H3+
76.0185	87	C5H2N+
76.0307	940	C6H4+
77.0386	702	C6H5+
78.0338	158	C5H4N+
78.0466	18	C6H6+
86.9633	56	C3ClO+
87.0231	43	C7H3+
88.0309	63	C7H4+
89.0386	779	C7H5+
90.0464	103	C7H6+
94.0414	25	C6H6O+
95.0492	215	C6H7O+
96.0446	17	C5H6NO+
102.0464	999	C8H6+
103.0416	20	C7H5N+
103.0547	29	C8H7+
105.0448	206	C6H5N2+
108.9839	356	C6H2Cl+
114.0338	67	C8H4N+
115.0419	51	C8H5N+
115.0544	45	C4H6FN3+
116.0492	143	F5H7N+
144.9609	42	CClF2N2O2+
202.0783	200	C8H10F2N3O+
214.0661	54	C16H8N+
