Mass spectrum: Naloxone; LC-ESI-QFT; MS2; CE: 75%; R=15000; [M+H]+
Name: Naloxone
Name: Normorphinone, N-allyl-dihydro-14-hydroxy-
Name: (4R,4aS,7aR,12bS)-4a,9-bis(oxidanyl)-3-prop-2-enyl-2,4,5,6,7a,13-hexahydro-1H-4,12-methanobenzofuro[3,2-e]isoquinolin-7-one
Formula: C19H21NO4
Exact mass: 327.1470582
SMILES: C=CCN1CCC23C4C(=O)CCC2(C1CC5=C3C(=C(C=C5)O)O4)O
InChI: InChI=1S/C19H21NO4/c1-2-8-20-9-7-18-15-11-3-4-12(21)16(15)24-17(18)13(22)5-6-19(18,23)14(20)10-11/h2-4,14,17,21,23H,1,5-10H2
Instrument: Q Exactive
Instrument type: LC-ESI-QFT
Ms type: MS2
Ion mode: POSITIVE
Ionization: ESI
Fragmentation mode: HCD
Collision energy: 75 % (nominal)
Resolution: 15000
Column name: XBridge C18 3.5um, 2.1x50mm, Waters
Retention time: 2.392 min
Base peak: 328.1544
Precursor m/z: 328.1543
Precursor type: [M+H]+
Precursor intensity: 187894299.49
m/z	relative intensity	assigned
67.0542	22	C5H7+
68.0493	14	C4H6N+
79.0544	18	C6H7+
80.0493	30	C5H6N+
103.0542	17	C8H7+
105.0699	21	C8H9+
115.0543	41	C9H7+
117.0697	22	C9H9+
118.0651	42	C8H8N+
129.0697	65	C10H9+
130.0653	19	C9H8N+
131.0492	30	C9H7O+
131.0851	15	C10H11+
143.0493	15	C10H7O+
144.0565	22	C10H8O+
144.0808	18	C10H10N+
145.0649	60	C10H9O+
146.0602	60	C9H8NO+
147.0441	26	C9H7O2+
152.0621	47	C12H8+
153.0697	130	C12H9+
156.0808	31	C11H10N+
157.0651	81	C11H9O+
158.0964	54	C11H12N+
161.0598	174	C10H9O2+
165.07	38	C13H9+
166.0652	19	C12H8N+
167.0724	21	C12H9N+
167.086	24	C13H11+
168.0805	26	C12H10N+
170.0596	17	C11H8NO+
171.0803	24	C12H11O+
173.0597	35	C11H9O2+
178.0781	16	C14H10+
179.0852	20	C14H11+
180.0811	50	C13H10N+
181.0647	110	C13H9O+
183.0674	56	C12H9NO+
184.0521	122	C12H8O2+
184.0756	112	C12H10NO+
185.0599	120	C12H9O2+
186.0917	25	C12H12NO+
194.0961	26	C14H12N+
195.0806	21	C14H11O+
196.0756	22	C13H10NO+
197.0598	32	C13H9O2+
198.068	37	C13H10O2+
198.0913	45	C13H12NO+
199.0759	88	C13H11O2+
208.0752	49	C14H10NO+
212.0706	999	C13H10NO2+
214.0863	33	C13H12NO2+
222.0916	49	C15H12NO+
224.1064	59	C15H14NO+
226.0646	13	C17H8N+
226.086	200	C14H12NO2+
226.1216	16	C15H16NO+
227.0946	41	C14H13NO2+
238.0868	18	C15H12NO2+
238.1227	37	C16H16NO+
240.1015	81	C15H14NO2+
241.1096	14	C15H15NO2+
250.0859	39	C16H12NO2+
252.1013	84	C16H14NO2+
253.1093	51	C16H15NO2+
268.097	36	C16H14NO3+
268.1335	27	C17H18NO2+
