Mass spectrum: 6-Methyl-1,3,5-triazine-2,4-diamine; LC-ESI-QFT; MS2; CE: 120%; R=15000; [M+H]+
Name: 6-Methyl-1,3,5-triazine-2,4-diamine
Formula: C4H7N5
Exact mass: 125.0701452
SMILES: CC1=NC(=NC(=N1)N)N
InChI: InChI=1S/C4H7N5/c1-2-7-3(5)9-4(6)8-2/h1H3,(H4,5,6,7,8,9)
Instrument: Exploris 240 Thermo Scientific
Instrument type: LC-ESI-QFT
Ms type: MS2
Ion mode: POSITIVE
Ionization: ESI
Fragmentation mode: HCD
Collision energy: 120 % (nominal)
Resolution: 15000
Column name: XBridge C18 3.5um, 2.1x50mm, Waters
Retention time: 0.925 min
Base peak: 126.0771
Precursor m/z: 126.0774
Precursor type: [M+H]+
m/z	relative intensity	assigned
42.0338	214	C2H4N+
43.029	999	CH3N2+
59.0603	33	C2H7N2+
68.0243	207	C2H2N3+
84.0555	113	C3H6N3+
85.0508	116	C2H5N4+
126.0771	28	C4H8N5+
