Mass spectrum: Meropenem; LC-ESI-QFT; MS2; CE: 60%; R=15000; [M-H]-
Name: Meropenem
Name: 3-[5-(dimethylcarbamoyl)pyrrolidin-3-yl]sulfanyl-6-(1-hydroxyethyl)-4-methyl-7-oxo-1-azabicyclo[3.2.0]hept-2-ene-2-carboxylic acid
Formula: C17H25N3O5S
Exact mass: 383.1514919
SMILES: CC1C2C(C(=O)N2C(=C1SC3CC(NC3)C(=O)N(C)C)C(=O)O)C(C)O
InChI: InChI=1S/C17H25N3O5S/c1-7-12-11(8(2)21)16(23)20(12)13(17(24)25)14(7)26-9-5-10(18-6-9)15(22)19(3)4/h7-12,18,21H,5-6H2,1-4H3,(H,24,25)
Instrument: Exploris 240 Thermo Scientific
Instrument type: LC-ESI-QFT
Ms type: MS2
Ion mode: NEGATIVE
Ionization: ESI
Fragmentation mode: HCD
Collision energy: 60 % (nominal)
Resolution: 15000
Column name: XBridge C18 3.5um, 2.1x50mm, Waters
Retention time: 2.467 min
Base peak: 382.1443
Precursor m/z: 382.1442
Precursor type: [M-H]-
m/z	relative intensity	assigned
68.0142	25	C3H2NO-
73.0118	30	C3H5S-
96.9993	24	C4H3NS-
100.0228	87	C4H6NS-
110.0196	39	C6H6S-
111.0148	83	C5H5NS-
112.0227	999	C5H6NS-
120.0456	41	C7H6NO-
126.0145	488	C6H6OS-
139.0099	12	C6H5NOS-
152.0302	113	C8H8OS-
154.0331	158	C7H8NOS-
173.0754	136	C7H13N2OS-
180.0488	35	C9H10NOS-
