Mass spectrum: Lacidipine; LC-ESI-QFT; MS2; CE: 45%; R=15000; [M-H]-
Name: Lacidipine
Name: 2,6-Dimethyl-4-[2-[3-[(2-methylpropan-2-yl)oxy]-3-oxoprop-1-enyl]phenyl]-1,4-dihydropyridine-3,5-dicarboxylic acid diethyl ester
Name: diethyl 2,6-dimethyl-4-[2-[3-[(2-methylpropan-2-yl)oxy]-3-oxoprop-1-enyl]phenyl]-1,4-dihydropyridine-3,5-dicarboxylate
Formula: C26H33NO6
Exact mass: 455.2307878
SMILES: CCOC(=O)C1=C(NC(=C(C1C2=CC=CC=C2C=CC(=O)OC(C)(C)C)C(=O)OCC)C)C
InChI: InChI=1S/C26H33NO6/c1-8-31-24(29)21-16(3)27-17(4)22(25(30)32-9-2)23(21)19-13-11-10-12-18(19)14-15-20(28)33-26(5,6)7/h10-15,23,27H,8-9H2,1-7H3
Instrument: Exploris 240 Thermo Scientific
Instrument type: LC-ESI-QFT
Ms type: MS2
Ion mode: NEGATIVE
Ionization: ESI
Fragmentation mode: HCD
Collision energy: 45 % (nominal)
Resolution: 15000
Column name: XBridge C18 3.5um, 2.1x50mm, Waters
Retention time: 13.159 min
Base peak: 454.2235
Precursor m/z: 454.2235
Precursor type: [M-H]-
m/z	relative intensity	assigned
57.0346	127	C3H5O-
73.0659	155	C4H9O-
101.0397	689	C8H5-
103.0553	193	C8H7-
113.0244	365	C5H5O3-
117.0711	111	C9H9-
147.0451	999	C9H7O2-
178.0871	44	C10H12NO2-
205.0896	176	C15H11N-
206.0978	71	C15H12N-
217.0896	83	C16H11N-
232.0764	102	C16H10NO-
233.0849	128	C16H11NO-
234.0923	178	C16H12NO-
236.1079	51	C16H14NO-
246.0565	45	C16H8NO2-
247.0642	22	C16H9NO2-
250.1093	80	C13H16NO4-
260.0717	70	C17H10NO2-
261.0795	269	C17H11NO2-
262.0876	294	C17H12NO2-
278.118	209	C18H16NO2-
280.1346	32	C18H18NO2-
306.0757	36	C18H12NO4-
306.1139	204	C19H16NO3-
308.1293	149	C19H18NO3-
334.1081	126	C20H16NO4-
352.1196	66	C20H18NO5-
