Mass spectrum: Fluralaner; LC-ESI-QFT; MS2; CE: 75%; R=17500; [M+H]+
Name: Fluralaner
Name: 4-[5-(3,5-dichlorophenyl)-5-(trifluoromethyl)-4H-1,2-oxazol-3-yl]-2-methyl-N-[2-oxo-2-(2,2,2-trifluoroethylamino)ethyl]benzamide
Formula: C22H17Cl2F6N3O3
Exact mass: 555.055116084
SMILES: CC1=C(C=CC(=C1)C2=NOC(C2)(C3=CC(=CC(=C3)Cl)Cl)C(F)(F)F)C(=O)NCC(=O)NCC(F)(F)F
InChI: InChI=1S/C22H17Cl2F6N3O3/c1-11-4-12(2-3-16(11)19(35)31-9-18(34)32-10-21(25,26)27)17-8-20(36-33-17,22(28,29)30)13-5-14(23)7-15(24)6-13/h2-7H,8-10H2,1H3,(H,31,35)(H,32,34)
Instrument: Exploris 240 Orbitrap Thermo Scientific
Instrument type: LC-ESI-QFT
Ms type: MS2
Ion mode: POSITIVE
Ionization: ESI
Fragmentation mode: HCD
Collision energy: 75 % (nominal)
Resolution: 17500
Column name: XBridge C18 3.5um, 2.1x50mm, Waters
Retention time: 13.351 min
Base peak: 556.0624
Precursor m/z: 556.0624
Precursor type: [M+H]+
m/z	relative intensity	assigned
77.0386	287	C6H5+
78.0337	67	C5H4N+
90.0467	23	C7H6+
94.0415	8	C6H6O+
95.0491	123	C6H7O+
96.0443	51	C5H6NO+
102.0338	17	C7H4N+
102.0464	127	C8H6+
103.0542	216	C8H7+
104.0497	47	C7H6N+
105.0447	131	C6H5N2+
106.0285	8	C6H4NO+
107.0489	10	C2H6FN3O+
115.0422	35	C8H5N+
116.0494	28	F5H7N+
130.0649	63	CH9F5N+
132.0443	999	C8H6NO+
150.0546	18	F5H9NO2+
160.0389	975	CH7F5NO2+
