Mass spectrum: Torasemidecarboxylic acid; LC-ESI-QFT; MS2; CE: 90%; R=17500; [M-H]-
Name: Torasemidecarboxylic acid
Name: Torsemide Carboxylic Acid
Name: 3-[[3-(propan-2-ylcarbamoylsulfamoyl)pyridin-4-yl]amino]benzoic acid
Formula: C16H18N4O5S
Exact mass: 378.0997907
SMILES: CC(C)NC(=O)NS(=O)(=O)C1=C(C=CN=C1)NC2=CC=CC(=C2)C(=O)O
InChI: InChI=1S/C16H18N4O5S/c1-10(2)18-16(23)20-26(24,25)14-9-17-7-6-13(14)19-12-5-3-4-11(8-12)15(21)22/h3-10H,1-2H3,(H,17,19)(H,21,22)(H2,18,20,23)
Instrument: Exploris 240 Orbitrap Thermo Scientific
Instrument type: LC-ESI-QFT
Ms type: MS2
Ion mode: NEGATIVE
Ionization: ESI
Fragmentation mode: HCD
Collision energy: 90 % (nominal)
Resolution: 17500
Column name: XBridge C18 3.5um, 2.1x50mm, Waters
Retention time: 4.449 min
Base peak: 377.0924
Precursor m/z: 377.0925
Precursor type: [M-H]-
m/z	relative intensity	assigned
57.9756	154	CNS-
60.9753	98	CHOS-
61.9707	75	NOS-
63.9625	36	O2S-
65.0147	55	C3HN2-
77.9655	906	NO2S-
79.9813	32	H2NO2S-
91.0303	264	C5H3N2-
91.0427	116	C6H5N-
92.038	508	C5H4N2-
92.0503	35	C6H6N-
93.0459	220	C5H5N2-
107.0491	56	C5H5N3-
108.0329	440	C5H4N2O-
135.0019	34	C6H3N2S-
141.0459	53	C9H5N2-
150.9975	46	C6H3N2OS-
167.0615	999	C11H7N2-
168.0565	100	C10H6N3-
169.0769	231	C11H9N2-
181.0647	709	C11H7N3-
182.0725	138	C11H8N3-
183.0565	48	C11H7N2O-
184.0876	49	C11H10N3-
212.0287	67	C11H6N3S-
