Mass spectrum: BifenoxH; LC-ESI-QFT; MS2; CE: 45%; R=15000; [M+H]+
Name: BifenoxH
Name: Bifenox
Name: methyl 5-(2,4-dichlorophenoxy)-2-nitrobenzoate
Formula: C14H9Cl2NO5
Exact mass: 340.9857777
SMILES: COC(=O)C1=C(C=CC(=C1)OC2=C(C=C(C=C2)Cl)Cl)[N+](=O)[O-]
InChI: InChI=1S/C14H9Cl2NO5/c1-21-14(18)10-7-9(3-4-12(10)17(19)20)22-13-5-2-8(15)6-11(13)16/h2-7H,1H3
Instrument: Q Exactive Plus
Instrument type: LC-ESI-QFT
Ms type: MS2
Ion mode: POSITIVE
Ionization: ESI
Fragmentation mode: HCD
Collision energy: 45 % (nominal)
Resolution: 15000
Column name: XBridge C18 3.5um, 2.1x50mm, Waters
Retention time: 12.553 min
Base peak: 164.9845
Precursor m/z: 341.9931
Precursor type: [M+H]+
Precursor intensity: 10833477.93
m/z	relative intensity	assigned
51.0229	10	C4H3+
67.0178	21	C4H3O+
67.0416	10	C4H5N+
68.9971	67	C3HO2+
76.0181	52	C5H2N+
78.0338	45	C5H4N+
84.9839	20	C4H2Cl+
104.013	209	C6H2NO+
108.9839	17	C6H2Cl+
126.9946	19	C6H4ClO+
128.0021	25	C6H5ClO+
132.9605	186	C5H3Cl2+
140.0495	62	C10H6N+
144.9607	23	C6H3Cl2+
160.9554	40	C6H3Cl2O+
162.9709	49	C6H5Cl2O+
172.9667	215	C9ClNO+
174.0103	98	C10H5ClN+
175.0183	62	C10H6ClN+
176.0021	11	C10H5ClO+
182.9762	56	C9H5Cl2+
188.9502	999	C7H3Cl2O2+
203.0131	213	C11H6ClNO+
231.0078	16	C12H6ClNO2+
235.9783	14	C12H6Cl2O+
238.966	20	C11H5Cl2O2+
265.9761	60	C12H6Cl2NO2+
