Mass spectrum: Zoxamide; LC-ESI-QFT; MS2; CE: 60%; R=15000; [M+H]+
Name: Zoxamide
Name: 3,5-dichloro-N-(1-chloro-3-methyl-2-oxopentan-3-yl)-4-methylbenzamide
Formula: C14H16Cl3NO2
Exact mass: 335.0246618
SMILES: CCC(C)(C(=O)CCl)NC(=O)C1=CC(=C(C(=C1)Cl)C)Cl
InChI: InChI=1S/C14H16Cl3NO2/c1-4-14(3,12(19)7-15)18-13(20)9-5-10(16)8(2)11(17)6-9/h5-6H,4,7H2,1-3H3,(H,18,20)
Instrument: Exploris 240 Thermo Scientific
Instrument type: LC-ESI-QFT
Ms type: MS2
Ion mode: POSITIVE
Ionization: ESI
Fragmentation mode: HCD
Collision energy: 60 % (nominal)
Resolution: 15000
Column name: XBridge C18 3.5um, 2.1x50mm, Waters
Retention time: 11.610 min
Base peak: 336.0318
Precursor m/z: 336.0319
Precursor type: [M+H]+
m/z	relative intensity	assigned
69.0699	20	C5H9+
158.9762	142	C7H5Cl2+
176.9871	18	C4H10Cl3N+
186.9704	999	C8H5Cl2O+
203.0827	19	C10H16ClO2+
203.9982	22	C8H8Cl2NO+
