Mass spectrum: Lacidipine; LC-ESI-QFT; MS2; CE: 60%; R=15000; [M-H]-
Name: Lacidipine
Name: 2,6-Dimethyl-4-[2-[3-[(2-methylpropan-2-yl)oxy]-3-oxoprop-1-enyl]phenyl]-1,4-dihydropyridine-3,5-dicarboxylic acid diethyl ester
Name: diethyl 2,6-dimethyl-4-[2-[3-[(2-methylpropan-2-yl)oxy]-3-oxoprop-1-enyl]phenyl]-1,4-dihydropyridine-3,5-dicarboxylate
Formula: C26H33NO6
Exact mass: 455.2307878
SMILES: CCOC(=O)C1=C(NC(=C(C1C2=CC=CC=C2C=CC(=O)OC(C)(C)C)C(=O)OCC)C)C
InChI: InChI=1S/C26H33NO6/c1-8-31-24(29)21-16(3)27-17(4)22(25(30)32-9-2)23(21)19-13-11-10-12-18(19)14-15-20(28)33-26(5,6)7/h10-15,23,27H,8-9H2,1-7H3
Instrument: Exploris 240 Thermo Scientific
Instrument type: LC-ESI-QFT
Ms type: MS2
Ion mode: NEGATIVE
Ionization: ESI
Fragmentation mode: HCD
Collision energy: 60 % (nominal)
Resolution: 15000
Column name: XBridge C18 3.5um, 2.1x50mm, Waters
Retention time: 13.159 min
Base peak: 454.2235
Precursor m/z: 454.2235
Precursor type: [M-H]-
m/z	relative intensity	assigned
57.0345	227	C3H5O-
68.9981	68	C3HO2-
73.0658	140	C4H9O-
101.0396	999	C8H5-
103.0552	266	C8H7-
113.0244	169	C5H5O3-
117.0708	46	C9H9-
119.0499	51	C8H7O-
147.0452	286	C9H7O2-
149.0483	30	C8H7NO2-
178.0872	27	C10H12NO2-
205.0899	220	C15H11N-
206.0979	93	C15H12N-
232.0768	136	C16H10NO-
233.0846	101	C16H11NO-
234.0924	223	C16H12NO-
246.0558	182	C16H8NO2-
260.0714	72	C17H10NO2-
261.0796	123	C17H11NO2-
262.0872	133	C17H12NO2-
