Mass spectrum: Telmisartan O-acyl-glucuronide; LC-ESI-QFT; MS2; CE: 90%; R=17500; [M+H]+
Name: Telmisartan O-acyl-glucuronide
Name: 3,4,5-trihydroxy-6-[2-[4-[[4-methyl-6-(1-methylbenzimidazol-2-yl)-2-propylbenzimidazol-1-yl]methyl]phenyl]benzoyl]oxyoxane-2-carboxylic acid
Formula: C39H38N4O8
Exact mass: 690.2689642
SMILES: CCCC1=NC2=C(N1CC3=CC=C(C=C3)C4=CC=CC=C4C(=O)OC5C(C(C(C(O5)C(=O)O)O)O)O)C=C(C=C2C)C6=NC7=CC=CC=C7N6C
InChI: InChI=1S/C39H38N4O8/c1-4-9-30-41-31-21(2)18-24(36-40-27-12-7-8-13-28(27)42(36)3)19-29(31)43(30)20-22-14-16-23(17-15-22)25-10-5-6-11-26(25)38(49)51-39-34(46)32(44)33(45)35(50-39)37(47)48/h5-8,10-19,32-35,39,44-46H,4,9,20H2,1-3H3,(H,47,48)
Instrument: Exploris 240 Orbitrap Thermo Scientific
Instrument type: LC-ESI-QFT
Ms type: MS2
Ion mode: POSITIVE
Ionization: ESI
Fragmentation mode: HCD
Collision energy: 90 % (nominal)
Resolution: 17500
Column name: XBridge C18 3.5um, 2.1x50mm, Waters
Retention time: 6.944 min
Base peak: 346.1415
Precursor m/z: 691.2762
Precursor type: [M+H]+
m/z	relative intensity	assigned
79.0543	27	C6H7+
92.0499	14	C6H6N+
103.0421	10	C7H5N+
106.0651	69	C7H8N+
115.0548	16	C9H7+
119.0605	5	C7H7N2+
129.0699	10	C10H9+
131.0609	15	C8H7N2+
133.0289	19	C8H5O2+
133.076	33	C8H9N2+
143.0608	19	C9H7N2+
144.0684	29	C9H8N2+
145.076	20	C9H9N2+
152.062	73	C12H8+
153.07	32	C12H9+
155.0854	43	C12H11+
157.0765	15	C10H9N2+
158.0843	15	C10H10N2+
165.0699	228	C13H9+
166.0775	24	C13H10+
168.057	13	C12H8O+
170.0715	14	C10H8N3+
183.0802	29	C13H11O+
193.0643	143	C14H9O+
207.0921	15	C14H11N2+
211.0755	72	C14H11O2+
221.1076	15	C15H13N2+
222.116	18	C15H14N2+
233.0953	19	C15H11N3+
234.1028	57	C15H12N3+
247.111	36	C16H13N3+
259.0972	22	C16H11N4+
260.1052	114	C16H12N4+
261.1136	999	C16H13N4+
262.1209	50	C16H14N4+
273.1134	60	C17H13N4+
274.1214	137	C17H14N4+
275.1292	511	C17H15N4+
276.1369	974	C17H16N4+
287.1294	79	C18H15N4+
288.1369	36	C18H16N4+
289.1448	392	C18H17N4+
303.1603	170	C19H19N4+
305.177	25	C19H21N4+
453.1687	6	C30H21N4O+
467.1866	33	C31H23N4O+
483.1825	14	C33H25NO3+
