Mass spectrum: 5-Fluorocytosine; LC-ESI-QFT; MS2; CE: 60%; R=17500; [M+H]+
Name: 5-Fluorocytosine
Name: Flucytosine
Name: 6-amino-5-fluoro-1H-pyrimidin-2-one
Formula: C4H4FN3O
Exact mass: 129.03384
SMILES: C1=NC(=O)NC(=C1F)N
InChI: InChI=1S/C4H4FN3O/c5-2-1-7-4(9)8-3(2)6/h1H,(H3,6,7,8,9)
Instrument: Exploris 240 Orbitrap Thermo Scientific
Instrument type: LC-ESI-QFT
Ms type: MS2
Ion mode: POSITIVE
Ionization: ESI
Fragmentation mode: HCD
Collision energy: 60 % (nominal)
Resolution: 17500
Column name: XBridge C18 3.5um, 2.1x50mm, Waters
Retention time: 0.909 min
Base peak: 130.041
Precursor m/z: 130.0411
Precursor type: [M+H]+
m/z	relative intensity	assigned
85.0198	3	C3H2FN2+
87.0352	44	C3H4FN2+
112.0304	19	C4H3FN3+
113.0145	128	C4H2FN2O+
130.041	999	C4H5FN3O+
