Mass spectrum: 7-Methylxanthine; LC-ESI-QFT; MS2; CE: 75%; R=17500; [M+H]+
Name: 7-Methylxanthine
Name: 7-methyl-3H-purine-2,6-dione
Formula: C6H6N4O2
Exact mass: 166.0490754
SMILES: CN1C=NC2=C1C(=O)NC(=O)N2
InChI: InChI=1S/C6H6N4O2/c1-10-2-7-4-3(10)5(11)9-6(12)8-4/h2H,1H3,(H2,8,9,11,12)
Instrument: Exploris 240 Orbitrap Thermo Scientific
Instrument type: LC-ESI-QFT
Ms type: MS2
Ion mode: POSITIVE
Ionization: ESI
Fragmentation mode: HCD
Collision energy: 75 % (nominal)
Resolution: 17500
Column name: XBridge C18 3.5um, 2.1x50mm, Waters
Retention time: 1.422 min
Base peak: 256.9597
Precursor m/z: 167.0564
Precursor type: [M+H]+
m/z	relative intensity	assigned
42.0338	43	C2H4N+
55.029	94	C2H3N2+
56.013	5	C2H2NO+
67.029	38	C3H3N2+
69.0447	79	C3H5N2+
83.0241	10	C3H3N2O+
95.0239	12	C4H3N2O+
96.0556	80	C4H6N3+
97.0397	19	C4H5N2O+
124.0505	999	C5H6N3O+
149.0456	14	C6H5N4O+
150.0297	135	C6H4N3O2+
167.0562	124	C6H7N4O2+
