Mass spectrum: Prazosin; LC-ESI-QFT; MS2; CE: 75%; R=17500; [M+H]+
Name: Prazosin
Name: [4-(4-amino-6,7-dimethoxyquinazolin-2-yl)piperazin-1-yl]-(furan-2-yl)methanone
Formula: C19H21N5O4
Exact mass: 383.159354152
SMILES: COC1=C(C=C2C(=C1)C(=NC(=N2)N3CCN(CC3)C(=O)C4=CC=CO4)N)OC
InChI: InChI=1S/C19H21N5O4/c1-26-15-10-12-13(11-16(15)27-2)21-19(22-17(12)20)24-7-5-23(6-8-24)18(25)14-4-3-9-28-14/h3-4,9-11H,5-8H2,1-2H3,(H2,20,21,22)
Instrument: Exploris 240 Orbitrap Thermo Scientific
Instrument type: LC-ESI-QFT
Ms type: MS2
Ion mode: POSITIVE
Ionization: ESI
Fragmentation mode: HCD
Collision energy: 75 % (nominal)
Resolution: 17500
Column name: XBridge C18 3.5um, 2.1x50mm, Waters
Retention time: 4.835 min
Base peak: 384.1665
Precursor m/z: 384.1666
Precursor type: [M+H]+
m/z	relative intensity	assigned
70.0653	9	C4H8N+
94.0289	7	C5H4NO+
95.0128	999	C5H3O2+
120.0446	23	C7H6NO+
138.055	148	C7H8NO2+
164.0705	53	C9H10NO2+
174.0898	15	C9H10N4+
177.065	11	C9H9N2O2+
186.0909	13	C10H10N4+
201.0769	7	C10H9N4O+
202.0851	19	C10H10N4O+
203.0927	81	C10H11N4O+
205.0724	31	C9H9N4O2+
217.0718	14	C10H9N4O2+
221.1034	13	C10H13N4O2+
229.0721	18	C11H9N4O2+
231.0876	334	C11H11N4O2+
232.0955	43	C11H12N4O2+
233.1029	33	C11H13N4O2+
247.119	63	C12H15N4O2+
257.1044	21	C15H15NO3+
259.1188	4	C13H15N4O2+
272.1139	8	C13H14N5O2+
322.1297	7	C17H16N5O2+
350.1255	41	C18H16N5O3+
368.1349	12	C18H18N5O4+
