Mass spectrum: Oxazepam; LC-ESI-QFT; MS2; CE: 60%; R=15000; [M+H]+
Name: Oxazepam
Name: 7-chloro-3-hydroxy-5-phenyl-1,3-dihydro-1,4-benzodiazepin-2-one
Formula: C15H11ClN2O2
Exact mass: 286.0509053
SMILES: OC1N=C(C2=CC=CC=C2)C2=CC(Cl)=CC=C2NC1=O
InChI: InChI=1S/C15H11ClN2O2/c16-10-6-7-12-11(8-10)13(9-4-2-1-3-5-9)18-15(20)14(19)17-12/h1-8,15,20H,(H,17,19)
Instrument: Q Exactive Plus
Instrument type: LC-ESI-QFT
Ms type: MS2
Ion mode: POSITIVE
Ionization: ESI
Fragmentation mode: HCD
Collision energy: 60 % (nominal)
Resolution: 15000
Column name: XBridge C18 3.5um, 2.1x50mm, Waters
Retention time: 7.837 min
Base peak: 287.0581
Precursor m/z: 287.0582
Precursor type: [M+H]+
Precursor intensity: 396230952
m/z	relative intensity	assigned
93.0573	84	C6H7N+
95.049	12	C6H7O+
104.0494	457	C7H6N+
118.0523	12	C7H6N2+
128.0261	137	C6H7ClN+
138.0105	36	C7H5ClN+
153.0213	105	C7H6ClN2+
163.0056	133	C8H4ClN2+
166.0053	29	C8H5ClNO+
181.0163	15	C8H6ClN2O+
195.0916	16	C13H11N2+
205.0762	11	C14H9N2+
207.0675	15	C14H9NO+
214.0416	14	C13H9ClN+
229.0524	11	C13H10ClN2+
231.068	90	C13H12ClN2+
241.0524	999	C14H10ClN2+
257.0471	22	C14H10ClN2O+
269.0476	18	C15H10ClN2O+
