Mass spectrum: Felbinac; LC-ESI-QFT; MS2; CE: 150%; R=17500; [M+H]+
Name: Felbinac
Name: 2-(4-phenylphenyl)acetic acid
Formula: C14H12O2
Exact mass: 212.083729624
SMILES: C1=CC=C(C=C1)C2=CC=C(C=C2)CC(=O)O
InChI: InChI=1S/C14H12O2/c15-14(16)10-11-6-8-13(9-7-11)12-4-2-1-3-5-12/h1-9H,10H2,(H,15,16)
Instrument: Exploris 240 Orbitrap Thermo Scientific
Instrument type: LC-ESI-QFT
Ms type: MS2
Ion mode: POSITIVE
Ionization: ESI
Fragmentation mode: HCD
Collision energy: 150 % (nominal)
Resolution: 17500
Column name: XBridge C18 3.5um, 2.1x50mm, Waters
Retention time: 9.218 min
Base peak: 235.0727
Precursor m/z: 213.091
Precursor type: [M+H]+
m/z	relative intensity	assigned
63.023	59	C5H3+
65.0386	91	C5H5+
78.0466	55	C6H6+
89.0385	51	C7H5+
91.0543	158	C7H7+
102.0467	76	C8H6+
115.0541	423	C9H7+
126.0467	82	C10H6+
127.0541	26	C10H7+
128.0618	281	C10H8+
141.07	59	C11H9+
150.0465	58	C12H6+
151.0545	45	C12H7+
152.0619	590	C12H8+
163.0549	62	C13H7+
164.0621	154	C13H8+
165.0698	999	C13H9+
169.065	69	C12H9O+
