Mass spectrum: Cyprodinil-TP-CGA-304076; LC-ESI-QFT; MS2; CE: 30%; R=15000; [M+H]+
Name: Cyprodinil-TP-CGA-304076
Name: 2-Anilino-6-cyclopropyl-4-methylpyrimidine-5-ol
Name: 2-anilino-4-cyclopropyl-6-methylpyrimidin-5-ol
Formula: C14H15N3O
Exact mass: 241.1215121
SMILES: CC1=NC(=NC(=C1O)C2CC2)NC3=CC=CC=C3
InChI: InChI=1S/C14H15N3O/c1-9-13(18)12(10-7-8-10)17-14(15-9)16-11-5-3-2-4-6-11/h2-6,10,18H,7-8H2,1H3,(H,15,16,17)
Instrument: Exploris 240 Thermo Scientific
Instrument type: LC-ESI-QFT
Ms type: MS2
Ion mode: POSITIVE
Ionization: ESI
Fragmentation mode: HCD
Collision energy: 30 % (nominal)
Resolution: 15000
Column name: XBridge C18 3.5um, 2.1x50mm, Waters
Retention time: 6.981 min
Base peak: 242.1283
Precursor m/z: 242.1288
Precursor type: [M+H]+
m/z	relative intensity	assigned
68.0494	19	C4H6N+
79.0541	115	C6H7+
80.0493	22	C5H6N+
81.0572	56	C5H7N+
94.065	89	C6H8N+
96.0806	217	C6H10N+
104.0492	35	C7H6N+
106.0651	37	C7H8N+
110.06	35	C6H8NO+
124.0755	92	C7H10NO+
139.0865	26	C7H11N2O+
145.0394	11	C8H5N2O+
149.0706	16	C8H9N2O+
186.1023	31	C11H12N3+
197.1073	59	C13H13N2+
226.0977	36	C13H12N3O+
242.1285	999	C14H16N3O+
