Mass spectrum: ortho-Hydroxyatorvastatin; LC-ESI-QFT; MS2; CE: 120%; R=17500; [M+H]+
Name: ortho-Hydroxyatorvastatin
Name: Orthohydroxyatorvastatin
Name: (3R,5R)-7-[2-(4-fluorophenyl)-4-[(2-hydroxyphenyl)carbamoyl]-3-phenyl-5-propan-2-ylpyrrol-1-yl]-3,5-dihydroxyheptanoic acid
Formula: C33H35FN2O6
Exact mass: 574.2479151
SMILES: CC(C1=C(C(NC2=CC=CC=C2O)=O)C(C3=CC=CC=C3)=C(C4=CC=C(F)C=C4)N1CC[C@@H](O)C[C@@H](O)CC(O)=O)C
InChI: InChI=1S/C33H35FN2O6/c1-20(2)31-30(33(42)35-26-10-6-7-11-27(26)39)29(21-8-4-3-5-9-21)32(22-12-14-23(34)15-13-22)36(31)17-16-24(37)18-25(38)19-28(40)41/h3-15,20,24-25,37-39H,16-19H2,1-2H3,(H,35,42)(H,40,41)/t24-,25-/m1/s1
Instrument: Exploris 240 Orbitrap Thermo Scientific
Instrument type: LC-ESI-QFT
Ms type: MS2
Ion mode: POSITIVE
Ionization: ESI
Fragmentation mode: HCD
Collision energy: 120 % (nominal)
Resolution: 17500
Column name: XBridge C18 3.5um, 2.1x50mm, Waters
Retention time: 9.950 min
Base peak: 575.2551
Precursor m/z: 575.2552
Precursor type: [M+H]+
m/z	relative intensity	assigned
65.0387	45	C5H5+
69.0335	25	C4H5O+
71.0493	26	C4H7O+
75.0231	23	C6H3+
77.0385	185	C6H5+
79.0543	42	C6H7+
80.0495	999	C5H6N+
83.0293	33	C5H4F+
83.0493	28	C5H7O+
89.0389	31	C7H5+
90.0338	18	C6H4N+
90.0464	23	C7H6+
91.0543	92	C7H7+
95.0493	61	C6H7O+
101.0387	35	C8H5+
103.0545	61	C8H7+
104.0497	58	C7H6N+
105.0448	37	C6H5N2+
108.0366	26	C7H5F+
108.0448	39	C6H6NO+
109.0449	108	C7H6F+
115.0543	267	C9H7+
117.0576	53	C8H7N+
121.0451	25	C8H6F+
122.0401	92	C7H5FN+
123.0354	29	C6H4FN2+
125.0384	69	C10H5+
126.0469	23	C10H6+
127.0542	273	C10H7+
128.05	56	C9H6N+
128.0623	169	C10H8+
129.0448	35	C8H5N2+
133.0448	208	C9H6F+
135.0482	33	C8H6FN+
139.0548	17	C11H7+
141.07	43	C11H9+
145.0653	54	C10H9O+
146.0394	32	C9H5FN+
151.0546	32	C12H7+
152.0492	21	C11H6N+
152.0623	86	C12H8+
153.0572	30	C11H7N+
153.0706	33	C12H9+
154.0647	98	C11H8N+
155.0605	168	C10H7N2+
165.0703	36	C13H9+
166.0649	27	C12H8N+
167.0731	50	C12H9N+
172.0555	80	C11H7FN+
173.0506	84	C10H6FN2+
180.0807	20	C13H10N+
183.0608	150	C13H8F+
196.0687	71	C5H12N2O6+
200.0628	39	C16H8+
201.0702	55	C16H9+
202.0778	313	C16H10+
203.0858	38	C16H11+
207.0605	188	C6H11N2O6+
208.0691	32	C6H12N2O6+
209.0765	98	C15H10F+
213.0709	53	C14H10FO+
216.0807	24	C16H10N+
217.0878	20	C16H11N+
220.0684	406	C16H9F+
222.0696	89	C12H11FO3+
227.0739	40	C14H10FNO+
228.0798	75	C17H10N+
230.0966	28	C17H12N+
232.0688	17	C8H12N2O6+
233.0763	303	C17H10F+
234.0719	253	C16H9FN+
235.0791	355	C16H10FN+
236.0869	30	C16H11FN+
241.0892	30	C15H12FNO+
248.087	491	C17H11FN+
249.0949	32	C17H12FN+
250.1032	30	C17H13FN+
257.077	33	C10H13N2O6+
259.0794	105	C18H10FN+
260.0868	105	C18H11FN+
261.0949	157	C18H12FN+
262.1029	59	C18H13FN+
272.0873	58	C19H11FN+
274.103	53	C19H13FN+
276.1193	34	C19H15FN+
