Mass spectrum: Tepraloxydim; LC-ESI-QFT; MS2; CE: 60%; R=15000; [M-H]-
Name: Tepraloxydim
Name: 2-Cyclohexen-1-one, 2-(1-((((2E)-3-chloro-2-propenyl)oxy)imino)propyl)-3-hydroxy-5-(tetrahydro-2H-pyran-4-yl)-
Name: 2-[N-[(E)-3-chloroprop-2-enoxy]-C-ethylcarbonimidoyl]-3-hydroxy-5-(oxan-4-yl)cyclohex-2-en-1-one
Formula: C17H24ClNO4
Exact mass: 341.1393859
SMILES: CCC(=C1C(=O)CC(CC1=O)C2CCOCC2)NOCC=CCl
InChI: InChI=1S/C17H24ClNO4/c1-2-14(19-23-7-3-6-18)17-15(20)10-13(11-16(17)21)12-4-8-22-9-5-12/h3,6,12-13,19H,2,4-5,7-11H2,1H3
Instrument: Q Exactive Plus
Instrument type: LC-ESI-QFT
Ms type: MS2
Ion mode: NEGATIVE
Ionization: ESI
Fragmentation mode: HCD
Collision energy: 60 % (nominal)
Resolution: 15000
Column name: XBridge C18 3.5um, 2.1x50mm, Waters
Retention time: 10.003 min
Base peak: 340.1321
Precursor m/z: 340.1321
Precursor type: [M-H]-
Precursor intensity: 110160583.24
m/z	relative intensity	assigned
65.9985	103	C3NO-
83.0503	24	C5H7O-
92.0506	35	C6H6N-
107.0504	14	C7H7O-
108.0457	25	C6H6NO-
109.0295	72	C6H5O2-
110.061	16	C6H8NO-
120.0821	25	C8H10N-
134.0247	356	C7H4NO2-
145.0534	14	C9H7NO-
150.0927	31	C9H12NO-
153.0922	39	C9H13O2-
162.0562	30	C9H8NO2-
165.0794	50	C9H11NO2-
176.1082	16	C11H14NO-
178.0873	14	C10H12NO2-
195.1027	56	C11H15O3-
220.0978	999	C12H14NO3-
221.1183	38	C13H17O3-
233.1057	22	C13H15NO3-
248.1292	320	C14H18NO3-
