Mass spectrum: Fluometuron; LC-ESI-QFT; MS2; CE: 120%; R=15000; [M+H]+
Name: Fluometuron
Name: 1,1-dimethyl-3-[3-(trifluoromethyl)phenyl]urea
Formula: C10H11F3N2O
Exact mass: 232.0823476
SMILES: CN(C)C(=O)NC1=CC=CC(=C1)C(F)(F)F
InChI: InChI=1S/C10H11F3N2O/c1-15(2)9(16)14-8-5-3-4-7(6-8)10(11,12)13/h3-6H,1-2H3,(H,14,16)
Instrument: Q Exactive Plus
Instrument type: LC-ESI-QFT
Ms type: MS2
Ion mode: POSITIVE
Ionization: ESI
Fragmentation mode: HCD
Collision energy: 120 % (nominal)
Resolution: 15000
Column name: XBridge C18 3.5um, 2.1x50mm, Waters
Retention time: 7.101 min
Base peak: 233.0896
Precursor m/z: 233.0896
Precursor type: [M+H]+
Precursor intensity: 1062988004.97
m/z	relative intensity	assigned
56.0131	108	C2H2NO+
63.0229	13	C5H3+
72.0444	999	C3H6NO+
75.023	18	C6H3+
83.0289	11	C5H4F+
100.0183	10	C7H2N+
113.04	27	C6H6FO+
123.0355	26	C6H4FN2+
125.0196	23	C7H3F2+
140.0307	21	C7H4F2N+
141.0259	24	C6H3F2N2+
145.0261	93	C7H4F3+
