Mass spectrum: Piperine; LC-ESI-QFT; MS2; CE: 180%; R=17500; [M+H]+
Name: Piperine
Name: Piperidine, 1-(5-(1,3-benzodioxol-5-yl)-1-oxo-2,4-pentadienyl)-
Name: 5-(1,3-benzodioxol-5-yl)-1-piperidin-1-ylpenta-2,4-dien-1-one
Formula: C17H19NO3
Exact mass: 285.1364935
SMILES: C1CCN(CC1)C(=O)C=CC=CC2=CC3=C(C=C2)OCO3
InChI: InChI=1S/C17H19NO3/c19-17(18-10-4-1-5-11-18)7-3-2-6-14-8-9-15-16(12-14)21-13-20-15/h2-3,6-9,12H,1,4-5,10-11,13H2
Instrument: Exploris 240 Orbitrap Thermo Scientific
Instrument type: LC-ESI-QFT
Ms type: MS2
Ion mode: POSITIVE
Ionization: ESI
Fragmentation mode: HCD
Collision energy: 180 % (nominal)
Resolution: 17500
Column name: XBridge C18 3.5um, 2.1x50mm, Waters
Retention time: 9.631 min
Base peak: 286.1434
Precursor m/z: 286.1438
Precursor type: [M+H]+
m/z	relative intensity	assigned
50.0152	58	C4H2+
51.0229	364	C4H3+
53.0385	27	C4H5+
63.0229	511	C5H3+
65.0385	520	C5H5+
75.0231	76	C6H3+
77.0385	172	C6H5+
80.0496	26	C5H6N+
87.0233	37	C7H3+
89.0386	999	C7H5+
91.0543	39	C7H7+
95.0493	32	C6H7O+
114.0467	35	C9H6+
115.0542	925	C9H7+
