Mass spectrum: Diflubenzuron; LC-ESI-QFT; MS2; CE: 120%; R=15000; [M-H]-
Name: Diflubenzuron
Name: N-[(4-chlorophenyl)carbamoyl]-2,6-difluorobenzamide
Formula: C14H9ClF2N2O2
Exact mass: 310.0320616
SMILES: FC1=CC=CC(F)=C1C(=O)NC(=O)NC1=CC=C(Cl)C=C1
InChI: InChI=1S/C14H9ClF2N2O2/c15-8-4-6-9(7-5-8)18-14(21)19-13(20)12-10(16)2-1-3-11(12)17/h1-7H,(H2,18,19,20,21)
Instrument: Q Exactive Plus
Instrument type: LC-ESI-QFT
Ms type: MS2
Ion mode: NEGATIVE
Ionization: ESI
Fragmentation mode: HCD
Collision energy: 120 % (nominal)
Resolution: 15000
Column name: XBridge C18 3.5um, 2.1x50mm, Waters
Retention time: 11.157 min
Base peak: 309.0248
Precursor m/z: 309.0248
Precursor type: [M-H]-
Precursor intensity: 108093912.43
m/z	relative intensity	assigned
73.0084	621	C6H-
93.0146	999	C6H2F-
113.021	22	C6H3F2-
