Mass spectrum: Tebuconazole; LC-ESI-QFT; MS2; CE: 60%; R=15000; [M+H]+
Name: Tebuconazole
Name: 1-(4-chlorophenyl)-4,4-dimethyl-3-(1,2,4-triazol-1-ylmethyl)pentan-3-ol
Formula: C16H22ClN3O
Exact mass: 307.14514
SMILES: CC(C)(C)C(O)(CCC1=CC=C(Cl)C=C1)CN1C=NC=N1
InChI: InChI=1S/C16H22ClN3O/c1-15(2,3)16(21,10-20-12-18-11-19-20)9-8-13-4-6-14(17)7-5-13/h4-7,11-12,21H,8-10H2,1-3H3
Instrument: Q Exactive Plus
Instrument type: LC-ESI-QFT
Ms type: MS2
Ion mode: POSITIVE
Ionization: ESI
Fragmentation mode: HCD
Collision energy: 60 % (nominal)
Resolution: 15000
Column name: XBridge C18 3.5um, 2.1x50mm, Waters
Retention time: 11.585 min
Base peak: 308.1526
Precursor m/z: 308.1524
Precursor type: [M+H]+
Precursor intensity: 754606480.66
m/z	relative intensity	assigned
57.0699	17	C4H9+
59.0492	25	C3H7O+
70.04	999	C2H4N3+
115.0541	10	C9H7+
116.062	13	C9H8+
125.0153	99	C7H6Cl+
151.031	31	C9H8Cl+
