Mass spectrum: Hexythiazox; LC-ESI-QFT; MS2; CE: 60%; R=15000; [M+H]+
Name: Hexythiazox
Name: 5-(4-chlorophenyl)-N-cyclohexyl-4-methyl-2-oxo-1,3-thiazolidine-3-carboxamide
Formula: C17H21ClN2O2S
Exact mass: 352.1012266
SMILES: CC1C(SC(=O)N1C(=O)NC2CCCCC2)C3=CC=C(C=C3)Cl
InChI: InChI=1S/C17H21ClN2O2S/c1-11-15(12-7-9-13(18)10-8-12)23-17(22)20(11)16(21)19-14-5-3-2-4-6-14/h7-11,14-15H,2-6H2,1H3,(H,19,21)
Instrument: Exploris 240 Thermo Scientific
Instrument type: LC-ESI-QFT
Ms type: MS2
Ion mode: POSITIVE
Ionization: ESI
Fragmentation mode: HCD
Collision energy: 60 % (nominal)
Resolution: 15000
Column name: XBridge C18 3.5um, 2.1x50mm, Waters
Retention time: 14.150 min
Base peak: 353.1083
Precursor m/z: 353.1085
Precursor type: [M+H]+
m/z	relative intensity	assigned
55.0541	38	C4H7+
56.0494	67	C3H6N+
83.0853	24	C6H11+
115.0541	215	C9H7+
116.0619	228	C9H8+
132.0805	60	C9H10N+
133.0884	135	C9H11N+
141.0571	11	C10H7N+
143.0602	30	C9H7N2+
151.0307	461	C9H8Cl+
153.0338	30	C8H8ClN+
159.0675	51	C10H9NO+
168.0572	999	C12H8O+
176.0259	93	C10H7ClN+
228.0237	34	C13H8O2S+
