Mass spectrum: Sacubitril; LC-ESI-QFT; MS2; CE: 90%; R=15000; [M+H]+
Name: Sacubitril
Name: AHU-377(Sacubitril)
Name: 4-[[(2S,4R)-5-ethoxy-4-methyl-5-oxidanylidene-1-(4-phenylphenyl)pentan-2-yl]amino]-4-oxidanylidene-butanoic acid
Formula: C24H29NO5
Exact mass: 411.204573
SMILES: CCOC(=O)C(C)CC(CC1=CC=C(C=C1)C2=CC=CC=C2)NC(=O)CCC(=O)O
InChI: InChI=1S/C24H29NO5/c1-3-30-24(29)17(2)15-21(25-22(26)13-14-23(27)28)16-18-9-11-20(12-10-18)19-7-5-4-6-8-19/h4-12,17,21H,3,13-16H2,1-2H3,(H,25,26)(H,27,28)
Instrument: Q Exactive
Instrument type: LC-ESI-QFT
Ms type: MS2
Ion mode: POSITIVE
Ionization: ESI
Fragmentation mode: HCD
Collision energy: 90 % (nominal)
Resolution: 15000
Column name: XBridge C18 3.5um, 2.1x50mm, Waters
Retention time: 10.997 min
Base peak: 412.212
Precursor m/z: 412.2118
Precursor type: [M+H]+
Precursor intensity: 327880907.7
m/z	relative intensity	assigned
73.0284	16	C3H5O2+
91.0543	27	C7H7+
115.0541	27	C9H7+
141.0698	10	C11H9+
152.0622	75	C12H8+
165.07	329	C13H9+
166.0778	24	C13H10+
167.0855	155	C13H11+
176.0623	13	C14H8+
177.0699	27	C14H9+
178.0777	999	C14H10+
179.0856	30	C14H11+
191.0858	47	C15H11+
192.0934	29	C15H12+
193.1017	32	C15H13+
