Mass spectrum: Tolbutamide; LC-ESI-QFT; MS2; CE: 120%; R=17500; [M+H]+
Name: Tolbutamide
Name: 1-butyl-3-(4-methylphenyl)sulfonylurea
Formula: C12H18N2O3S
Exact mass: 270.103813436
SMILES: CCCCNC(=O)NS(=O)(=O)C1=CC=C(C=C1)C
InChI: InChI=1S/C12H18N2O3S/c1-3-4-9-13-12(15)14-18(16,17)11-7-5-10(2)6-8-11/h5-8H,3-4,9H2,1-2H3,(H2,13,14,15)
Instrument: Exploris 240 Orbitrap Thermo Scientific
Instrument type: LC-ESI-QFT
Ms type: MS2
Ion mode: POSITIVE
Ionization: ESI
Fragmentation mode: HCD
Collision energy: 120 % (nominal)
Resolution: 17500
Column name: XBridge C18 3.5um, 2.1x50mm, Waters
Retention time: 6.959 min
Base peak: 271.1108
Precursor m/z: 271.1111
Precursor type: [M+H]+
m/z	relative intensity	assigned
51.023	7	C4H3+
57.0698	54	C4H9+
63.023	20	C5H3+
65.0386	756	C5H5+
77.0386	9	C6H5+
79.9799	15	H2NO2S+
91.0542	999	C7H7+
109.0648	8	C7H9O+
119.0605	19	C7H7N2+
