Mass spectrum: 3-(3,5-Dichlorophenyl)-N-(1-methylethyl)-2,4-dioxo-1-imidazolidinecarboxamide; LC-ESI-QFT; MS2; CE: 90%; R=15000; [M+H]+
Name: 3-(3,5-Dichlorophenyl)-N-(1-methylethyl)-2,4-dioxo-1-imidazolidinecarboxamide
Name: Iprodione
Name: 3-(3,5-dichlorophenyl)-2,4-dioxo-N-propan-2-ylimidazolidine-1-carboxamide
Formula: C13H13Cl2N3O3
Exact mass: 329.0333966
SMILES: CC(C)NC(=O)N1CC(=O)N(C1=O)C1=CC(Cl)=CC(Cl)=C1
InChI: InChI=1S/C13H13Cl2N3O3/c1-7(2)16-12(20)17-6-11(19)18(13(17)21)10-4-8(14)3-9(15)5-10/h3-5,7H,6H2,1-2H3,(H,16,20)
Instrument: Q Exactive Plus
Instrument type: LC-ESI-QFT
Ms type: MS2
Ion mode: POSITIVE
Ionization: ESI
Fragmentation mode: HCD
Collision energy: 90 % (nominal)
Resolution: 15000
Column name: XBridge C18 3.5um, 2.1x50mm, Waters
Retention time: 10.931 min
Base peak: 164.9846
Precursor m/z: 330.0407
Precursor type: [M+H]+
Precursor intensity: 12843620.78
m/z	relative intensity	assigned
56.0131	999	C2H2NO+
84.9838	11	C4H2Cl+
86.9633	10	C3ClO+
108.9842	17	C6H2Cl+
120.0445	19	C7H6NO+
123.995	49	C6H3ClN+
125.0029	12	C6H4ClN+
127.0183	230	C6H6ClN+
128.0024	18	C6H5ClO+
129.0101	33	C6H6ClO+
130.0401	31	C7H4N3+
132.0446	24	C8H6NO+
132.9606	35	C5H3Cl2+
138.0105	185	C7H5ClN+
139.0062	53	C6H4ClN2+
139.0186	155	C7H6ClN+
145.9685	45	C6H4Cl2+
152.9976	214	C7H4ClNO+
159.9716	36	C6H4Cl2N+
160.9791	53	C6H5Cl2N+
161.9871	116	C6H6Cl2N+
162.9714	35	C6H5Cl2O+
167.0133	30	C8H6ClNO+
172.9667	124	C6H3Cl2N2+
173.9872	243	C7H6Cl2N+
187.9663	66	C7H4Cl2NO+
