Mass spectrum: Torasemidecarboxylic acid; LC-ESI-QFT; MS2; CE: 45%; R=17500; [M-H]-
Name: Torasemidecarboxylic acid
Name: Torsemide Carboxylic Acid
Name: 3-[[3-(propan-2-ylcarbamoylsulfamoyl)pyridin-4-yl]amino]benzoic acid
Formula: C16H18N4O5S
Exact mass: 378.0997907
SMILES: CC(C)NC(=O)NS(=O)(=O)C1=C(C=CN=C1)NC2=CC=CC(=C2)C(=O)O
InChI: InChI=1S/C16H18N4O5S/c1-10(2)18-16(23)20-26(24,25)14-9-17-7-6-13(14)19-12-5-3-4-11(8-12)15(21)22/h3-10H,1-2H3,(H,17,19)(H,21,22)(H2,18,20,23)
Instrument: Exploris 240 Orbitrap Thermo Scientific
Instrument type: LC-ESI-QFT
Ms type: MS2
Ion mode: NEGATIVE
Ionization: ESI
Fragmentation mode: HCD
Collision energy: 45 % (nominal)
Resolution: 17500
Column name: XBridge C18 3.5um, 2.1x50mm, Waters
Retention time: 4.449 min
Base peak: 377.0924
Precursor m/z: 377.0925
Precursor type: [M-H]-
m/z	relative intensity	assigned
60.9753	30	CHOS-
77.9656	18	NO2S-
91.0428	11	C6H5N-
92.038	28	C5H4N2-
93.0457	18	C5H5N2-
108.0329	60	C5H4N2O-
150.9974	29	C6H3N2OS-
155.005	10	C6H5NO2S-
156.0001	76	C5H4N2O2S-
168.0568	3	C10H6N3-
169.0772	11	C11H9N2-
181.0646	245	C11H7N3-
182.0724	273	C11H8N3-
183.0564	19	C11H7N2O-
184.0879	56	C11H10N3-
212.0294	20	C11H6N3S-
230.0396	44	C11H8N3OS-
231.0235	74	C11H7N2O2S-
248.05	999	C11H10N3O2S-
275.014	8	C12H7N2O4S-
292.0398	487	C12H10N3O4S-
318.0205	3	C13H8N3O5S-
