Mass spectrum: Metolachlor; LC-ESI-QFT; MS2; CE: 180%; R=15000; [M+H]+
Name: Metolachlor
Name: 2-chloro-N-(2-ethyl-6-methylphenyl)-N-(1-methoxypropan-2-yl)acetamide
Formula: C15H22ClNO2
Exact mass: 283.1339066
SMILES: CCC1=C(N(C(C)COC)C(=O)CCl)C(C)=CC=C1
InChI: InChI=1S/C15H22ClNO2/c1-5-13-8-6-7-11(2)15(13)17(14(18)9-16)12(3)10-19-4/h6-8,12H,5,9-10H2,1-4H3
Instrument: Q Exactive Plus
Instrument type: LC-ESI-QFT
Ms type: MS2
Ion mode: POSITIVE
Ionization: ESI
Fragmentation mode: HCD
Collision energy: 180 % (nominal)
Resolution: 15000
Column name: XBridge C18 3.5um, 2.1x50mm, Waters
Retention time: 10.500 min
Base peak: 284.1412
Precursor m/z: 284.1412
Precursor type: [M+H]+
Precursor intensity: 759501235.91
m/z	relative intensity	assigned
50.0151	169	C4H2+
51.0229	442	C4H3+
53.0386	185	C4H5+
63.0229	142	C5H3+
65.0386	999	C5H5+
66.0465	127	C5H6+
77.0385	155	C6H5+
78.0464	206	C6H6+
79.0542	86	C6H7+
89.0385	276	C7H5+
90.0463	105	C7H6+
91.0542	830	C7H7+
92.0493	42	C6H6N+
93.0573	229	C6H7N+
95.0491	586	C6H7O+
102.0464	59	C8H6+
103.0542	314	C8H7+
104.0492	63	C7H6N+
105.0699	33	C8H9+
106.065	143	C7H8N+
115.0542	424	C9H7+
117.0572	324	C8H7N+
118.0651	94	C8H8N+
128.0619	33	C10H8+
130.0652	564	C9H8N+
131.0731	28	C9H9N+
132.0802	17	C9H10N+
142.0652	39	C10H8N+
143.0732	92	C10H9N+
144.081	111	C10H10N+
