Mass spectrum: 4-Hydroxyamphetamine; LC-ESI-QFT; MS2; CE: 70%; R=15000; [M+H]+
Name: 4-Hydroxyamphetamine
Name: 4-(2-aminopropyl)phenol
Formula: C9H13NO
Exact mass: 151.099714
SMILES: CC(CC1=CC=C(C=C1)O)N
InChI: InChI=1S/C9H13NO/c1-7(10)6-8-2-4-9(11)5-3-8/h2-5,7,11H,6,10H2,1H3
Instrument: Exploris 240 Thermo Scientific
Instrument type: LC-ESI-QFT
Ms type: MS2
Ion mode: POSITIVE
Ionization: ESI
Fragmentation mode: HCD
Collision energy: 70 % (nominal)
Resolution: 15000
Column name: XBridge C18 3.5um, 2.1x50mm, Waters
Retention time: 1.579 min
Base peak: 135.0802
Precursor m/z: 152.107
Precursor type: [M+H]+
m/z	relative intensity	assigned
51.0229	197	C4H3+
53.0386	328	C4H5+
55.0178	258	C3H3O+
59.0492	11	C3H7O+
63.0229	13	C5H3+
65.0386	103	C5H5+
77.0386	392	C6H5+
79.0542	337	C6H7+
81.0334	48	C5H5O+
89.0386	15	C7H5+
91.0542	230	C7H7+
94.0413	37	C6H6O+
95.0491	999	C6H7O+
107.0491	927	C7H7O+
115.0542	50	C9H7+
119.0491	69	C8H7O+
120.0569	43	C8H8O+
