Mass spectrum: Tepraloxydim; LC-ESI-QFT; MS2; CE: 15%; R=15000; [M-H]-
Name: Tepraloxydim
Name: 2-Cyclohexen-1-one, 2-(1-((((2E)-3-chloro-2-propenyl)oxy)imino)propyl)-3-hydroxy-5-(tetrahydro-2H-pyran-4-yl)-
Name: 2-[N-[(E)-3-chloroprop-2-enoxy]-C-ethylcarbonimidoyl]-3-hydroxy-5-(oxan-4-yl)cyclohex-2-en-1-one
Formula: C17H24ClNO4
Exact mass: 341.1393859
SMILES: CCC(=C1C(=O)CC(CC1=O)C2CCOCC2)NOCC=CCl
InChI: InChI=1S/C17H24ClNO4/c1-2-14(19-23-7-3-6-18)17-15(20)10-13(11-16(17)21)12-4-8-22-9-5-12/h3,6,12-13,19H,2,4-5,7-11H2,1H3
Instrument: Q Exactive Plus
Instrument type: LC-ESI-QFT
Ms type: MS2
Ion mode: NEGATIVE
Ionization: ESI
Fragmentation mode: HCD
Collision energy: 15 % (nominal)
Resolution: 15000
Column name: XBridge C18 3.5um, 2.1x50mm, Waters
Retention time: 10.003 min
Base peak: 340.1321
Precursor m/z: 340.1321
Precursor type: [M-H]-
Precursor intensity: 110160583.24
m/z	relative intensity	assigned
90.9955	12	C3H4ClO-
134.0243	11	C7H4NO2-
220.097	12	C12H14NO3-
248.1292	999	C14H18NO3-
250.1446	22	C14H20NO3-
340.1321	797	C17H23ClNO4-
