Mass spectrum: Losartan; LC-ESI-QFT; MS2; CE: 30%; R=15000; [M-H]-
Name: Losartan
Name: [2-butyl-5-chloro-3-[[4-[2-(2H-tetrazol-5-yl)phenyl]phenyl]methyl]imidazol-4-yl]methanol
Name: [2-butyl-5-chloranyl-3-[[4-[2-(2H-1,2,3,4-tetrazol-5-yl)phenyl]phenyl]methyl]imidazol-4-yl]methanol
Formula: C22H23ClN6O
Exact mass: 422.162187
SMILES: CCCCC1=NC(=C(N1CC2=CC=C(C=C2)C3=CC=CC=C3C4=NNN=N4)CO)Cl
InChI: InChI=1S/C22H23ClN6O/c1-2-3-8-20-24-21(23)19(14-30)29(20)13-15-9-11-16(12-10-15)17-6-4-5-7-18(17)22-25-27-28-26-22/h4-7,9-12,30H,2-3,8,13-14H2,1H3,(H,25,26,27,28)
Instrument: Q Exactive
Instrument type: LC-ESI-QFT
Ms type: MS2
Ion mode: NEGATIVE
Ionization: ESI
Fragmentation mode: HCD
Collision energy: 30 % (nominal)
Resolution: 15000
Column name: XBridge C18 3.5um, 2.1x50mm, Waters
Retention time: 7.671 min
Base peak: 421.1552
Precursor m/z: 421.1549
Precursor type: [M-H]-
Precursor intensity: 225522050.74
m/z	relative intensity	assigned
127.0068	999	C5H4ClN2-
155.0381	221	C7H8ClN2-
156.0461	156	C7H9ClN2-
157.0537	641	C7H10ClN2-
179.0866	878	C14H11-
185.0488	21	C8H10ClN2O-
187.0643	501	C8H12ClN2O-
193.0657	40	C14H9O-
195.0814	185	C14H11O-
272.1449	63	C20H18N-
291.0699	19	C18H12ClN2-
335.132	130	C21H20ClN2-
421.1545	99	C22H22ClN6O-
