Mass spectrum: Tribenuron-methyl; LC-ESI-QFT; MS2; CE: 30%; R=15000; [M+H]+
Name: Tribenuron-methyl
Name: methyl 2-[[(4-methoxy-6-methyl-1,3,5-triazin-2-yl)-methylcarbamoyl]sulfamoyl]benzoate
Formula: C15H17N5O6S
Exact mass: 395.0899543
SMILES: CC1=NC(=NC(=N1)OC)N(C)C(=O)NS(=O)(=O)C2=CC=CC=C2C(=O)OC
InChI: InChI=1S/C15H17N5O6S/c1-9-16-13(18-14(17-9)26-4)20(2)15(22)19-27(23,24)11-8-6-5-7-10(11)12(21)25-3/h5-8H,1-4H3,(H,19,22)
Instrument: Exploris 240 Thermo Scientific
Instrument type: LC-ESI-QFT
Ms type: MS2
Ion mode: POSITIVE
Ionization: ESI
Fragmentation mode: HCD
Collision energy: 30 % (nominal)
Resolution: 15000
Column name: XBridge C18 3.5um, 2.1x50mm, Waters
Retention time: 6.962 min
Base peak: 396.0963
Precursor m/z: 396.0972
Precursor type: [M+H]+
m/z	relative intensity	assigned
135.0439	11	C8H7O2+
155.0923	999	C6H11N4O+
181.0715	493	C7H9N4O2+
199.0054	171	C14HNO+
209.9848	12	C6H2N4O3S+
