Mass spectrum: Methyl methanesulfonate; LC-ESI-QFT; MS2; CE: 15%; R=15000; [M+H]+
Name: Methyl methanesulfonate
Formula: C2H6O3S
Exact mass: 110.0037651
SMILES: COS(C)(=O)=O
InChI: InChI=1S/C2H6O3S/c1-5-6(2,3)4/h1-2H3
Instrument: Exploris 240 Thermo Scientific
Instrument type: LC-ESI-QFT
Ms type: MS2
Ion mode: POSITIVE
Ionization: ESI
Fragmentation mode: HCD
Collision energy: 15 % (nominal)
Resolution: 15000
Column name: XBridge C18 3.5um, 2.1x50mm, Waters
Retention time: 1.385 min
Base peak: 132.9581
Precursor m/z: 111.011
Precursor type: [M+H]+
m/z	relative intensity	assigned
47.0491	17	C2H7O+
78.9848	151	CH3O2S+
111.0109	999	C2H7O3S+
