Mass spectrum: Diphenhydramine N-glucuronide; LC-ESI-QFT; MS2; CE: 45%; R=17500; [M+H]+
Name: Diphenhydramine N-glucuronide
Name: 6-[2-benzhydryloxyethyl(dimethyl)azaniumyl]-3,4,5-trihydroxyoxane-2-carboxylate
Formula: C23H29NO7
Exact mass: 431.1944023
SMILES: C[N+](C)(CCOC(C1=CC=CC=C1)C2=CC=CC=C2)C3C(C(C(C(O3)C(=O)[O-])O)O)O
InChI: InChI=1S/C23H29NO7/c1-24(2,22-19(27)17(25)18(26)21(31-22)23(28)29)13-14-30-20(15-9-5-3-6-10-15)16-11-7-4-8-12-16/h3-12,17-22,25-27H,13-14H2,1-2H3
Instrument: Exploris 240 Orbitrap Thermo Scientific
Instrument type: LC-ESI-QFT
Ms type: MS2
Ion mode: POSITIVE
Ionization: ESI
Fragmentation mode: HCD
Collision energy: 45 % (nominal)
Resolution: 17500
Column name: XBridge C18 3.5um, 2.1x50mm, Waters
Retention time: 5.862 min
Base peak: 432.2014
Precursor m/z: 432.2017
Precursor type: [M+H]+
m/z	relative intensity	assigned
57.0335	3	C3H5O+
71.0127	10	C3H3O2+
73.0284	26	C3H5O2+
85.0284	44	C4H5O2+
88.0758	4	C4H10NO+
99.0075	4	C4H3O3+
101.0234	8	C4H5O3+
103.039	5	C4H7O3+
113.0233	40	C5H5O3+
131.0343	4	C5H7O4+
152.0628	1	C12H8+
159.0284	3	C6H7O5+
167.0855	999	C13H11+
