Mass spectrum: Abacavir; LC-ESI-QFT; MS2; CE: 150%; R=17500; [M+H]+
Name: Abacavir
Name: {4-[2-amino-6-(cyclopropylamino)-9H-purin-9-yl]cyclopent-2-en-1-yl}methanol
Name: [4-[2-amino-6-(cyclopropylamino)purin-9-yl]cyclopent-2-en-1-yl]methanol
Formula: C14H18N6O
Exact mass: 286.1542092
SMILES: C1CC1NC2=C3C(=NC(=N2)N)N(C=N3)C4CC(C=C4)CO
InChI: InChI=1S/C14H18N6O/c15-14-18-12(17-9-2-3-9)11-13(19-14)20(7-16-11)10-4-1-8(5-10)6-21/h1,4,7-10,21H,2-3,5-6H2,(H3,15,17,18,19)
Instrument: Exploris 240 Orbitrap Thermo Scientific
Instrument type: LC-ESI-QFT
Ms type: MS2
Ion mode: POSITIVE
Ionization: ESI
Fragmentation mode: HCD
Collision energy: 150 % (nominal)
Resolution: 17500
Column name: XBridge C18 3.5um, 2.1x50mm, Waters
Retention time: 3.267 min
Base peak: 287.1609
Precursor m/z: 287.1615
Precursor type: [M+H]+
m/z	relative intensity	assigned
50.0153	20	C4H2+
51.0229	330	C4H3+
53.0386	115	C4H5+
54.0213	46	C2H2N2+
55.029	289	C2H3N2+
56.0494	40	C3H6N+
58.0651	45	C3H8N+
65.0133	101	C3HN2+
65.0388	75	C5H5+
66.0213	25	C3H2N2+
67.0291	68	C3H3N2+
67.0542	266	C5H7+
68.0243	46	C2H2N3+
68.0494	49	C4H6N+
77.0385	999	C6H5+
78.0339	32	C5H4N+
79.0543	283	C6H7+
80.0243	137	C3H2N3+
81.0324	29	C3H3N3+
82.0401	120	C3H4N3+
92.0243	191	C4H2N3+
94.0399	36	C4H4N3+
95.049	285	C6H7O+
105.0447	302	C6H5N2+
107.0351	362	C4H3N4+
108.0429	225	C4H4N4+
109.0508	207	C4H5N4+
133.0383	47	C5H3N5+
134.0459	218	C5H4N5+
