Mass spectrum: Fenhexamid; LC-ESI-QFT; MS2; CE: 60%; R=15000; [M-H]-
Name: Fenhexamid
Name: N-(2,3-dichloro-4-hydroxyphenyl)-1-methylcyclohexane-1-carboxamide
Formula: C14H17Cl2NO2
Exact mass: 301.0636341
SMILES: CC1(CCCCC1)C(=O)NC1=C(Cl)C(Cl)=C(O)C=C1
InChI: InChI=1S/C14H17Cl2NO2/c1-14(7-3-2-4-8-14)13(19)17-9-5-6-10(18)12(16)11(9)15/h5-6,18H,2-4,7-8H2,1H3,(H,17,19)
Instrument: Q Exactive Plus
Instrument type: LC-ESI-QFT
Ms type: MS2
Ion mode: NEGATIVE
Ionization: ESI
Fragmentation mode: HCD
Collision energy: 60 % (nominal)
Resolution: 15000
Column name: XBridge C18 3.5um, 2.1x50mm, Waters
Retention time: 10.237 min
Base peak: 300.0565
Precursor m/z: 300.0564
Precursor type: [M-H]-
Precursor intensity: 12160523.46
m/z	relative intensity	assigned
138.9831	65	C6H2ClNO-
155.9861	31	C6H3ClNO2-
166.9779	80	C7H2ClNO2-
167.9857	102	C7H3ClNO2-
174.9599	42	C6H3Cl2NO-
180.9937	69	C8H4ClNO2-
185.0844	89	C12H11NO-
192.9936	28	C9H4ClNO2-
194.0017	40	C9H5ClNO2-
195.0093	112	C9H6ClNO2-
208.0169	40	C10H7ClNO2-
212.0717	48	C13H10NO2-
213.0796	89	C13H11NO2-
220.017	70	C11H7ClNO2-
221.0249	435	C11H8ClNO2-
228.1035	28	C14H14NO2-
248.0484	339	C13H11ClNO2-
249.0562	921	C13H12ClNO2-
264.0796	999	C14H15ClNO2-
