Mass spectrum: Enzalutamide; LC-ESI-QFT; MS2; CE: 120%; R=15000; [M+H]+
Name: Enzalutamide
Name: 4-[3-[4-cyano-3-(trifluoromethyl)phenyl]-5,5-dimethyl-4-oxo-2-sulfanylideneimidazolidin-1-yl]-2-fluoro-N-methylbenzamide
Name: 4-[3-[4-cyano-3-(trifluoromethyl)phenyl]-5,5-dimethyl-4-oxidanylidene-2-sulfanylidene-imidazolidin-1-yl]-2-fluoranyl-N-methyl-benzamide
Formula: C21H16F4N4O2S
Exact mass: 464.0930096
SMILES: CC1(C(=O)N(C(=S)N1C2=CC(=C(C=C2)C(=O)NC)F)C3=CC(=C(C=C3)C#N)C(F)(F)F)C
InChI: InChI=1S/C21H16F4N4O2S/c1-20(2)18(31)28(12-5-4-11(10-26)15(8-12)21(23,24)25)19(32)29(20)13-6-7-14(16(22)9-13)17(30)27-3/h4-9H,1-3H3,(H,27,30)
Instrument: Q Exactive
Instrument type: LC-ESI-QFT
Ms type: MS2
Ion mode: POSITIVE
Ionization: ESI
Fragmentation mode: HCD
Collision energy: 120 % (nominal)
Resolution: 15000
Column name: XBridge C18 3.5um, 2.1x50mm, Waters
Retention time: 8.365 min
Base peak: 465.1004
Precursor m/z: 465.1003
Precursor type: [M+H]+
Precursor intensity: 640774504.06
m/z	relative intensity	assigned
58.0288	908	C2H4NO+
65.0386	176	C5H5+
68.9947	230	CF3+
75.023	161	C6H3+
83.0292	999	C5H4F+
92.0494	144	C6H6N+
94.0214	488	C6H3F+
100.0182	343	C7H2N+
108.0244	70	C6H3FN+
109.0449	415	C7H6F+
111.0478	75	C6H6FN+
112.0557	457	C6H7FN+
125.9935	172	C6H3FS+
135.0479	763	C8H6FN+
143.0103	227	C7H2F3+
148.0305	225	C7H3FN3+
154.9962	81	C7H4FOS+
156.0279	78	C7H7FNS+
167.0376	245	C3H5F2N4O2+
181.9873	78	C8H2F2NS+
