Mass spectrum: Nifedipine; LC-ESI-QFT; MS2; CE: 45%; R=15000; [M-H]-
Name: Nifedipine
Name: dimethyl 2,6-dimethyl-4-(2-nitrophenyl)-1,4-dihydropyridine-3,5-dicarboxylate
Formula: C17H18N2O6
Exact mass: 346.1164863
SMILES: CC1=C(C(C(=C(N1)C)C(=O)OC)C2=CC=CC=C2[N+](=O)[O-])C(=O)OC
InChI: InChI=1S/C17H18N2O6/c1-9-13(16(20)24-3)15(14(10(2)18-9)17(21)25-4)11-7-5-6-8-12(11)19(22)23/h5-8,15,18H,1-4H3
Instrument: Exploris 240 Thermo Scientific
Instrument type: LC-ESI-QFT
Ms type: MS2
Ion mode: NEGATIVE
Ionization: ESI
Fragmentation mode: HCD
Collision energy: 45 % (nominal)
Resolution: 15000
Column name: XBridge C18 3.5um, 2.1x50mm, Waters
Retention time: 7.572 min
Base peak: 345.1089
Precursor m/z: 345.1092
Precursor type: [M-H]-
m/z	relative intensity	assigned
92.0267	999	C6H4O-
95.0141	13	C5H3O2-
122.0247	132	C6H4NO2-
164.0716	37	C9H10NO2-
222.0774	148	C11H12NO4-
