Mass spectrum: Zolpidem carboxylic acid; LC-ESI-QFT; MS2; CE: 75%; R=17500; [M+H]+
Name: Zolpidem carboxylic acid
Name: 4-[3-[2-(dimethylamino)-2-oxoethyl]-6-methylimidazo[1,2-a]pyridin-2-yl]benzoic acid
Formula: C19H19N3O3
Exact mass: 337.1426415
SMILES: CC1=CN2C(=NC(=C2CC(=O)N(C)C)C3=CC=C(C=C3)C(=O)O)C=C1
InChI: InChI=1S/C19H19N3O3/c1-12-4-9-16-20-18(13-5-7-14(8-6-13)19(24)25)15(22(16)11-12)10-17(23)21(2)3/h4-9,11H,10H2,1-3H3,(H,24,25)
Instrument: Exploris 240 Orbitrap Thermo Scientific
Instrument type: LC-ESI-QFT
Ms type: MS2
Ion mode: POSITIVE
Ionization: ESI
Fragmentation mode: HCD
Collision energy: 75 % (nominal)
Resolution: 17500
Column name: XBridge C18 3.5um, 2.1x50mm, Waters
Retention time: 3.313 min
Base peak: 338.1493
Precursor m/z: 338.1499
Precursor type: [M+H]+
m/z	relative intensity	assigned
65.0384	18	C5H5+
92.0494	58	C6H6N+
93.0574	21	C6H7N+
110.06	57	C6H8NO+
118.0649	9	C8H8N+
119.073	6	C8H9N+
144.0687	4	C9H8N2+
145.076	24	C9H9N2+
156.0439	13	C10H6NO+
205.077	12	C14H9N2+
206.0833	13	C14H10N2+
219.0916	69	C15H11N2+
220.0992	101	C15H12N2+
221.1072	194	C15H13N2+
231.0912	4	C16H11N2+
247.0866	21	C16H11N2O+
248.0937	22	C16H12N2O+
249.1019	19	C16H13N2O+
264.0892	6	C16H12N2O2+
265.0971	999	C16H13N2O2+
266.1048	110	C16H14N2O2+
293.0919	69	C17H13N2O3+
