Mass spectrum: Cyphenothrin; LC-ESI-QFT; MS2; CE: 120%; R=15000; [M+H]+
Name: Cyphenothrin
Name: [cyano-(3-phenoxyphenyl)methyl] 2,2-dimethyl-3-(2-methylprop-1-enyl)cyclopropane-1-carboxylate
Formula: C24H25NO3
Exact mass: 375.1834437
SMILES: CC(=CC1C(C1(C)C)C(=O)OC(C#N)C2=CC(=CC=C2)OC3=CC=CC=C3)C
InChI: InChI=1S/C24H25NO3/c1-16(2)13-20-22(24(20,3)4)23(26)28-21(15-25)17-9-8-12-19(14-17)27-18-10-6-5-7-11-18/h5-14,20-22H,1-4H3
Instrument: Q Exactive Plus
Instrument type: LC-ESI-QFT
Ms type: MS2
Ion mode: POSITIVE
Ionization: ESI
Fragmentation mode: HCD
Collision energy: 120 % (nominal)
Resolution: 15000
Column name: XBridge C18 3.5um, 2.1x50mm, Waters
Retention time: 15.988 min
Base peak: 376.1907
Precursor m/z: 376.1907
Precursor type: [M+H]+
Precursor intensity: 107971715.93
m/z	relative intensity	assigned
50.015	46	C4H2+
51.0229	179	C4H3+
53.0021	40	C3HO+
53.0385	355	C4H5+
55.0542	233	C4H7+
59.0491	23	C3H7O+
65.0385	286	C5H5+
66.0464	52	C5H6+
67.0542	279	C5H7+
69.0335	55	C4H5O+
69.0697	38	C5H9+
75.0229	30	C6H3+
77.0384	83	C6H5+
78.0463	44	C6H6+
79.0541	737	C6H7+
81.0699	426	C6H9+
89.0384	34	C7H5+
91.0542	390	C7H7+
93.0699	193	C7H9+
95.0491	484	C6H7O+
95.0853	32	C7H11+
102.0464	14	C8H6+
103.0541	57	C8H7+
104.0493	46	C7H6N+
105.0697	49	C8H9+
107.0491	15	C7H7O+
107.0852	19	C8H11+
109.0648	29	C7H9O+
113.0384	27	C9H5+
115.0541	141	C9H7+
126.0463	62	C10H6+
127.0539	107	C10H7+
128.0621	83	C10H8+
139.0542	150	C11H7+
140.0497	67	C10H6N+
141.0697	30	C11H9+
145.0648	95	C10H9O+
150.0464	80	C12H6+
151.054	24	C12H7+
152.0619	999	C12H8+
153.0696	44	C12H9+
154.065	28	C11H8N+
155.0491	22	C11H7O+
164.0489	35	C12H6N+
165.0696	63	C13H9+
169.0646	193	C12H9O+
177.0565	17	C13H7N+
178.0778	21	C14H10+
181.065	76	C13H9O+
206.0598	82	C14H8NO+
