Mass spectrum: Diphenhydramine N-glucuronide; LC-ESI-QFT; MS2; CE: 90%; R=17500; [M+H]+
Name: Diphenhydramine N-glucuronide
Name: 6-[2-benzhydryloxyethyl(dimethyl)azaniumyl]-3,4,5-trihydroxyoxane-2-carboxylate
Formula: C23H29NO7
Exact mass: 431.1944023
SMILES: C[N+](C)(CCOC(C1=CC=CC=C1)C2=CC=CC=C2)C3C(C(C(C(O3)C(=O)[O-])O)O)O
InChI: InChI=1S/C23H29NO7/c1-24(2,22-19(27)17(25)18(26)21(31-22)23(28)29)13-14-30-20(15-9-5-3-6-10-15)16-11-7-4-8-12-16/h3-12,17-22,25-27H,13-14H2,1-2H3
Instrument: Exploris 240 Orbitrap Thermo Scientific
Instrument type: LC-ESI-QFT
Ms type: MS2
Ion mode: POSITIVE
Ionization: ESI
Fragmentation mode: HCD
Collision energy: 90 % (nominal)
Resolution: 17500
Column name: XBridge C18 3.5um, 2.1x50mm, Waters
Retention time: 5.862 min
Base peak: 432.2014
Precursor m/z: 432.2017
Precursor type: [M+H]+
m/z	relative intensity	assigned
55.0178	29	C3H3O+
57.0335	46	C3H5O+
71.0127	111	C3H3O2+
73.0284	122	C3H5O2+
83.0127	16	C4H3O2+
85.0283	131	C4H5O2+
101.0235	11	C4H5O3+
113.0232	25	C5H5O3+
128.0622	26	C10H8+
141.0702	29	C11H9+
151.054	34	C12H7+
152.0621	963	C12H8+
165.0699	873	C13H9+
166.0777	317	C13H10+
167.0856	999	C13H11+
