Mass spectrum: Fenhexamid; LC-ESI-QFT; MS2; CE: 75%; R=15000; [M+H]+
Name: Fenhexamid
Name: N-(2,3-dichloro-4-hydroxyphenyl)-1-methylcyclohexane-1-carboxamide
Formula: C14H17Cl2NO2
Exact mass: 301.0636341
SMILES: CC1(CCCCC1)C(=O)NC1=C(Cl)C(Cl)=C(O)C=C1
InChI: InChI=1S/C14H17Cl2NO2/c1-14(7-3-2-4-8-14)13(19)17-9-5-6-10(18)12(16)11(9)15/h5-6,18H,2-4,7-8H2,1H3,(H,17,19)
Instrument: Q Exactive Plus
Instrument type: LC-ESI-QFT
Ms type: MS2
Ion mode: POSITIVE
Ionization: ESI
Fragmentation mode: HCD
Collision energy: 75 % (nominal)
Resolution: 15000
Column name: XBridge C18 3.5um, 2.1x50mm, Waters
Retention time: 10.255 min
Base peak: 302.0711
Precursor m/z: 302.0709
Precursor type: [M+H]+
Precursor intensity: 261990810.91
m/z	relative intensity	assigned
53.0386	26	C4H5+
55.0543	999	C4H7+
69.0699	78	C5H9+
97.1012	372	C7H13+
142.0056	36	C6H5ClNO+
143.0134	113	C6H6ClNO+
