Mass spectrum: Diazepam; LC-ESI-QFT; MS2; CE: 90%; R=15000; [M+H]+
Name: Diazepam
Name: 7-chloro-1-methyl-5-phenyl-3H-1,4-benzodiazepin-2-one
Formula: C16H13ClN2O
Exact mass: 284.0716407
SMILES: CN1C2=C(C=C(Cl)C=C2)C(=NCC1=O)C1=CC=CC=C1
InChI: InChI=1S/C16H13ClN2O/c1-19-14-8-7-12(17)9-13(14)16(18-10-15(19)20)11-5-3-2-4-6-11/h2-9H,10H2,1H3
Instrument: Q Exactive Plus
Instrument type: LC-ESI-QFT
Ms type: MS2
Ion mode: POSITIVE
Ionization: ESI
Fragmentation mode: HCD
Collision energy: 90 % (nominal)
Resolution: 15000
Column name: XBridge C18 3.5um, 2.1x50mm, Waters
Retention time: 8.885 min
Base peak: 285.079
Precursor m/z: 285.0789
Precursor type: [M+H]+
Precursor intensity: 504649844.09
m/z	relative intensity	assigned
51.0229	19	C4H3+
53.0386	35	C4H5+
58.0288	84	C2H4NO+
63.0229	23	C5H3+
65.0386	85	C5H5+
66.0464	26	C5H6+
75.023	17	C6H3+
77.0386	24	C6H5+
79.0542	17	C6H7+
89.0385	300	C7H5+
90.0463	150	C7H6+
91.0542	743	C7H7+
95.0492	110	C6H7O+
98.9995	82	C5H4Cl+
104.0495	127	C7H6N+
105.0335	19	C7H5O+
105.0446	32	C6H5N2+
109.0649	18	C7H9O+
113.015	39	C6H6Cl+
114.0105	30	C5H5ClN+
116.0494	146	C8H6N+
117.0573	333	C8H7N+
118.0651	339	C8H8N+
119.073	192	C8H9N+
122.9995	36	C7H4Cl+
125.0153	425	C7H6Cl+
126.0232	38	C7H7Cl+
129.0099	24	C6H6ClO+
131.06	25	C8H7N2+
138.0106	105	C7H5ClN+
139.006	25	C6H4ClN2+
139.0183	69	C7H6ClN+
140.0264	55	C7H7ClN+
141.0342	15	C7H8ClN+
143.0604	282	C9H7N2+
144.0681	71	C9H8N2+
145.0755	13	C9H9N2+
147.0678	31	C9H9NO+
150.0105	73	C8H5ClN+
151.0184	24	C8H6ClN+
152.026	27	C8H7ClN+
152.0617	30	C12H8+
153.034	27	C8H8ClN+
154.0418	385	C8H9ClN+
163.0056	139	C8H4ClN2+
164.0012	20	C10N2O+
164.0615	10	C13H8+
165.0216	26	C8H6ClN2+
165.0698	298	C13H9+
166.0779	51	C13H10+
167.013	26	C8H6ClNO+
172.0628	24	C10H8N2O+
177.0215	69	C9H6ClN2+
178.0644	11	C13H8N+
178.0785	12	C14H10+
179.073	25	C13H9N+
180.0211	13	C9H7ClNO+
180.0806	147	C13H10N+
191.0729	45	C14H9N+
192.0807	236	C14H10N+
193.0886	999	C14H11N+
194.0965	101	C14H12N+
199.0315	15	C13H8Cl+
204.0807	148	C15H10N+
206.0835	324	C14H10N2+
207.0918	131	C14H11N2+
214.0422	23	C13H9ClN+
219.0918	14	C15H11N2+
220.0997	20	C15H12N2+
221.1074	114	C15H13N2+
222.1151	83	C15H14N2+
228.0574	21	C14H11ClN+
239.037	31	C14H8ClN2+
240.0439	34	C14H9ClN2+
241.0523	293	C14H10ClN2+
