Mass spectrum: Tropicamide; LC-ESI-QFT; MS2; CE: 120%; R=15000; [M+H]+
Name: Tropicamide
Name: N-ethyl-3-hydroxy-2-phenyl-N-(pyridin-4-ylmethyl)propanamide
Formula: C17H20N2O2
Exact mass: 284.1524779
SMILES: CCN(CC1=CC=NC=C1)C(=O)C(CO)C2=CC=CC=C2
InChI: InChI=1S/C17H20N2O2/c1-2-19(12-14-8-10-18-11-9-14)17(21)16(13-20)15-6-4-3-5-7-15/h3-11,16,20H,2,12-13H2,1H3
Instrument: Exploris 240 Thermo Scientific
Instrument type: LC-ESI-QFT
Ms type: MS2
Ion mode: POSITIVE
Ionization: ESI
Fragmentation mode: HCD
Collision energy: 120 % (nominal)
Resolution: 15000
Column name: XBridge C18 3.5um, 2.1x50mm, Waters
Retention time: 3.452 min
Base peak: 285.1595
Precursor m/z: 285.1598
Precursor type: [M+H]+
m/z	relative intensity	assigned
53.0386	32	C4H5+
65.0386	64	C5H5+
66.0464	59	C5H6+
67.0417	71	C4H5N+
77.0385	187	C6H5+
79.0417	96	C5H5N+
79.0543	53	C6H7+
80.0495	848	C5H6N+
90.0466	18	C7H6+
91.0543	210	C7H7+
92.0496	107	C6H6N+
93.0573	999	C6H7N+
95.0492	124	C6H7O+
103.0543	520	C8H7+
105.0447	64	C6H5N2+
107.0604	433	C6H7N2+
108.0684	69	C6H8N2+
119.0605	29	C7H7N2+
120.0682	26	C7H8N2+
135.092	23	C8H11N2+
