Mass spectrum: Fluopicolide; LC-ESI-QFT; MS2; CE: 30%; R=15000; [M+H]+
Name: Fluopicolide
Name: 2,6-dichloro-N-[[3-chloro-5-(trifluoromethyl)pyridin-2-yl]methyl]benzamide
Formula: C14H8Cl3F3N2O
Exact mass: 381.9654306
SMILES: C1=CC(=C(C(=C1)Cl)C(=O)NCC2=C(C=C(C=N2)C(F)(F)F)Cl)Cl
InChI: InChI=1S/C14H8Cl3F3N2O/c15-8-2-1-3-9(16)12(8)13(23)22-6-11-10(17)4-7(5-21-11)14(18,19)20/h1-5H,6H2,(H,22,23)
Instrument: Exploris 240 Thermo Scientific
Instrument type: LC-ESI-QFT
Ms type: MS2
Ion mode: POSITIVE
Ionization: ESI
Fragmentation mode: HCD
Collision energy: 30 % (nominal)
Resolution: 15000
Column name: XBridge C18 3.5um, 2.1x50mm, Waters
Retention time: 9.205 min
Base peak: 382.9726
Precursor m/z: 382.9727
Precursor type: [M+H]+
m/z	relative intensity	assigned
172.9554	999	C7H3Cl2O+
212.0085	19	C7H6ClF3NO+
364.9622	104	C14H7Cl3F3N2+
382.9728	61	C14H9Cl3F3N2O+
