Mass spectrum: Pilocarpine; LC-ESI-QFT; MS2; CE: 40%; R=15000; [M+H]+
Name: Pilocarpine
Name: (3S,4R)-3-ethyl-4-[(3-methylimidazol-4-yl)methyl]oxolan-2-one
Name: 3-ethyl-4-[(3-methylimidazol-4-yl)methyl]oxolan-2-one
Formula: C11H16N2O2
Exact mass: 208.1211778
SMILES: CCC1C(COC1=O)CC2=CN=CN2C
InChI: InChI=1S/C11H16N2O2/c1-3-10-8(6-15-11(10)14)4-9-5-12-7-13(9)2/h5,7-8,10H,3-4,6H2,1-2H3
Instrument: Exploris 240 Thermo Scientific
Instrument type: LC-ESI-QFT
Ms type: MS2
Ion mode: POSITIVE
Ionization: ESI
Fragmentation mode: HCD
Collision energy: 40 % (nominal)
Resolution: 15000
Column name: XBridge C18 3.5um, 2.1x50mm, Waters
Retention time: 1.369 min
Base peak: 209.128
Precursor m/z: 209.1285
Precursor type: [M+H]+
m/z	relative intensity	assigned
55.0543	24	C4H7+
80.0495	20	C5H6N+
81.0574	10	C5H7N+
83.0603	22	C4H7N2+
94.0652	52	C6H8N+
95.0604	774	C5H7N2+
95.073	46	C6H9N+
96.0682	999	C5H8N2+
97.076	32	C5H9N2+
107.0729	14	C7H9N+
109.076	64	C6H9N2+
121.0761	140	C7H9N2+
122.084	33	C7H10N2+
122.0965	57	C8H12N+
123.0913	27	C7H11N2+
134.0839	32	C8H10N2+
135.0915	55	C8H11N2+
136.1119	15	C9H14N+
147.0917	22	C9H11N2+
148.0997	18	C9H12N2+
151.1228	28	C9H15N2+
163.123	157	C10H15N2+
209.1285	315	C11H17N2O2+
