Mass spectrum: Nevirapine; LC-ESI-QFT; MS2; CE: 150%; R=17500; [M+H]+
Name: Nevirapine
Name: 2-cyclopropyl-7-methyl-2,4,9,15-tetrazatricyclo[9.4.0.03,8]pentadeca-1(11),3,5,7,12,14-hexaen-10-one
Formula: C15H14N4O
Exact mass: 266.1167611
SMILES: CC1=C2C(=NC=C1)N(C3=C(C=CC=N3)C(=O)N2)C4CC4
InChI: InChI=1S/C15H14N4O/c1-9-6-8-17-14-12(9)18-15(20)11-3-2-7-16-13(11)19(14)10-4-5-10/h2-3,6-8,10H,4-5H2,1H3,(H,18,20)
Instrument: Exploris 240 Orbitrap Thermo Scientific
Instrument type: LC-ESI-QFT
Ms type: MS2
Ion mode: POSITIVE
Ionization: ESI
Fragmentation mode: HCD
Collision energy: 150 % (nominal)
Resolution: 17500
Column name: XBridge C18 3.5um, 2.1x50mm, Waters
Retention time: 4.746 min
Base peak: 267.1236
Precursor m/z: 267.124
Precursor type: [M+H]+
m/z	relative intensity	assigned
50.0151	55	C4H2+
51.0229	378	C4H3+
52.0308	98	C4H4+
53.0385	999	C4H5+
63.0231	123	C5H3+
65.0385	177	C5H5+
66.0339	118	C4H4N+
67.0416	191	C4H5N+
68.0496	45	C4H6N+
76.0181	51	C5H2N+
77.0387	124	C6H5+
78.0338	712	C5H4N+
79.0416	297	C5H5N+
80.0495	617	C5H6N+
89.0388	66	C7H5+
90.0341	76	C6H4N+
91.0416	51	C6H5N+
92.0367	152	C5H4N2+
92.0493	42	C6H6N+
93.0448	287	C5H5N2+
96.0442	183	C5H6NO+
103.0294	99	C6H3N2+
104.0494	78	C7H6N+
105.0448	245	C6H5N2+
107.0602	55	C6H7N2+
114.0342	49	C8H4N+
116.0498	88	C8H6N+
117.0448	127	C7H5N2+
117.0569	66	C8H7N+
118.0527	77	C7H6N2+
121.0399	46	C6H5N2O+
128.0492	62	C9H6N+
129.045	116	C8H5N2+
131.0608	96	C8H7N2+
155.0607	125	C10H7N2+
157.0637	61	C9H7N3+
168.056	65	C10H6N3+
169.0635	73	C10H7N3+
170.0713	247	C10H8N3+
180.0564	44	C11H6N3+
182.0716	80	C11H8N3+
197.0822	130	C11H9N4+
