Mass spectrum: Boscalid; LC-ESI-QFT; MS2; CE: 150%; R=15000; [M+H]+
Name: Boscalid
Name: 2-chloro-N-[2-(4-chlorophenyl)phenyl]pyridine-3-carboxamide
Formula: C18H12Cl2N2O
Exact mass: 342.0326684
SMILES: ClC1=CC=C(C=C1)C1=C(NC(=O)C2=C(Cl)N=CC=C2)C=CC=C1
InChI: InChI=1S/C18H12Cl2N2O/c19-13-9-7-12(8-10-13)14-4-1-2-6-16(14)22-18(23)15-5-3-11-21-17(15)20/h1-11H,(H,22,23)
Instrument: Q Exactive Plus
Instrument type: LC-ESI-QFT
Ms type: MS2
Ion mode: POSITIVE
Ionization: ESI
Fragmentation mode: HCD
Collision energy: 150 % (nominal)
Resolution: 15000
Column name: XBridge C18 3.5um, 2.1x50mm, Waters
Retention time: 9.173 min
Base peak: 343.0403
Precursor m/z: 343.0399
Precursor type: [M+H]+
Precursor intensity: 188620855.64
m/z	relative intensity	assigned
50.0151	432	C4H2+
51.0229	630	C4H3+
52.0181	69	C3H2N+
53.0022	10	C3HO+
61.9792	96	CHClN+
63.023	46	C5H3+
65.0023	45	C4HO+
66.0338	16	C4H4N+
74.0151	28	C6H2+
75.0103	156	C5HN+
75.0229	40	C6H3+
76.0181	999	C5H2N+
78.0338	440	C5H4N+
84.984	154	C4H2Cl+
86.0153	11	C7H2+
87.0231	19	C7H3+
88.0307	21	C7H4+
89.0386	39	C7H5+
95.0491	14	C6H7O+
96.0444	200	C5H6NO+
99.0232	18	C8H3+
102.0462	55	C8H6+
111.9949	66	C5H3ClN+
113.0386	69	C9H5+
114.0339	31	C8H4N+
115.0542	37	C9H7+
126.0465	79	C10H6+
139.0541	91	C11H7+
140.0496	92	C10H6N+
149.0388	16	C12H5+
150.0465	232	C12H6+
151.0422	14	C11H5N+
151.0544	17	C12H7+
152.0621	93	C12H8+
163.0541	121	C13H7+
164.0495	45	C12H6N+
166.0529	11	C11H6N2+
169.0647	116	C12H9O+
174.0463	53	C14H6+
175.0413	30	C13H5N+
176.0618	51	C14H8+
177.0574	111	C13H7N+
179.0606	24	C12H7N2+
187.0542	137	C15H7+
189.0567	14	C14H7N+
189.0705	115	C15H9+
190.0651	110	C14H8N+
191.0734	12	C14H9N+
193.0654	20	C11H12ClN+
198.0465	64	C16H6+
200.0625	123	C16H8+
201.057	63	C15H7N+
202.0658	41	C15H8N+
213.0574	21	C16H7N+
214.0651	431	C16H8N+
217.065	27	C13H12ClN+
218.061	14	C12H11ClN2+
225.0575	149	C17H7N+
239.0613	18	C16H12Cl+
240.0681	97	C17H8N2+
241.0759	161	C17H9N2+
242.0833	112	C17H10N2+
