Mass spectrum: Fludioxonil; LC-ESI-QFT; MS2; CE: 45%; R=15000; [M-H]-
Name: Fludioxonil
Name: 4-(2,2-difluoro-1,3-benzodioxol-4-yl)-1H-pyrrole-3-carbonitrile
Formula: C12H6F2N2O2
Exact mass: 248.0397339
SMILES: FC1(F)OC2=CC=CC(=C2O1)C1=CNC=C1C#N
InChI: InChI=1S/C12H6F2N2O2/c13-12(14)17-10-3-1-2-8(11(10)18-12)9-6-16-5-7(9)4-15/h1-3,5-6,16H
Instrument: Q Exactive Plus
Instrument type: LC-ESI-QFT
Ms type: MS2
Ion mode: NEGATIVE
Ionization: ESI
Fragmentation mode: HCD
Collision energy: 45 % (nominal)
Resolution: 15000
Column name: XBridge C18 3.5um, 2.1x50mm, Waters
Retention time: 9.492 min
Base peak: 247.0323
Precursor m/z: 247.0325
Precursor type: [M-H]-
Precursor intensity: 372221920.2
m/z	relative intensity	assigned
126.0349	19	C9H4N-
153.0461	9	C10H5N2-
179.0251	14	C11H3N2O-
180.0329	40	C11H4N2O-
181.0407	74	C11H5N2O-
197.0358	10	C11H5N2O2-
199.0316	10	C11H4FN2O-
247.0325	999	C12H5F2N2O2-
