Mass spectrum: Hydroxytorasemide; LC-ESI-QFT; MS2; CE: 60%; R=17500; [M-H]-
Name: Hydroxytorasemide
Name: Torasemide metabolite M1
Name: 1-[4-[3-(hydroxymethyl)anilino]pyridin-3-yl]sulfonyl-3-propan-2-ylurea
Formula: C16H20N4O4S
Exact mass: 364.1205261
SMILES: CC(C)NC(=O)NS(=O)(=O)C1=C(C=CN=C1)NC2=CC=CC(=C2)CO
InChI: InChI=1S/C16H20N4O4S/c1-11(2)18-16(22)20-25(23,24)15-9-17-7-6-14(15)19-13-5-3-4-12(8-13)10-21/h3-9,11,21H,10H2,1-2H3,(H,17,19)(H2,18,20,22)
Instrument: Exploris 240 Orbitrap Thermo Scientific
Instrument type: LC-ESI-QFT
Ms type: MS2
Ion mode: NEGATIVE
Ionization: ESI
Fragmentation mode: HCD
Collision energy: 60 % (nominal)
Resolution: 17500
Column name: XBridge C18 3.5um, 2.1x50mm, Waters
Retention time: 4.137 min
Base peak: 363.113
Precursor m/z: 363.1132
Precursor type: [M-H]-
m/z	relative intensity	assigned
57.9757	10	CNS-
60.9754	49	CHOS-
77.9656	100	NO2S-
92.038	181	C5H4N2-
93.0457	77	C5H5N2-
108.0329	287	C5H4N2O-
108.0571	19	C5H6N3-
121.0532	77	C7H7NO-
135.0022	28	C6H3N2S-
136.0403	11	C7H6NO2-
150.9969	53	C6H3N2OS-
154.992	14	C5H3N2O2S-
155.9999	137	C5H4N2O2S-
157.0072	15	C5H5N2O2S-
167.0611	13	C11H7N2-
168.0568	26	C10H6N3-
169.0764	22	C11H9N2-
181.0644	75	C11H7N3-
182.0724	86	C11H8N3-
184.0881	131	C11H10N3-
193.0644	28	C12H7N3-
194.0723	356	C6H14N2O3S-
196.051	13	C11H6N3O-
197.0728	60	C6H15NO4S-
198.0672	11	C11H8N3O-
209.059	17	C12H7N3O-
210.0673	38	C12H8N3O-
211.0751	264	C12H9N3O-
212.0291	33	C11H6N3S-
212.0827	149	C12H10N3O-
214.0984	39	C12H12N3O-
231.0471	9	C11H9N3OS-
259.0429	24	C14H11O3S-
260.0501	45	C12H10N3O2S-
278.0605	999	C12H12N3O3S-
