Mass spectrum: Bromacil; LC-ESI-QFT; MS2; CE: 75%; R=15000; [M+H]+
Name: Bromacil
Name: 5-bromo-3-butan-2-yl-6-methyl-1H-pyrimidine-2,4-dione
Formula: C9H13BrN2O2
Exact mass: 260.0160398
SMILES: CCC(C)N1C(=O)NC(C)=C(Br)C1=O
InChI: InChI=1S/C9H13BrN2O2/c1-4-5(2)12-8(13)7(10)6(3)11-9(12)14/h5H,4H2,1-3H3,(H,11,14)
Instrument: Q Exactive Plus
Instrument type: LC-ESI-QFT
Ms type: MS2
Ion mode: POSITIVE
Ionization: ESI
Fragmentation mode: HCD
Collision energy: 75 % (nominal)
Resolution: 15000
Column name: XBridge C18 3.5um, 2.1x50mm, Waters
Retention time: 6.138 min
Base peak: 261.0235
Precursor m/z: 261.0233
Precursor type: [M+H]+
Precursor intensity: 277792870.2
m/z	relative intensity	assigned
52.0182	17	C3H2N+
54.0338	324	C3H4N+
55.0416	34	C3H5N+
69.0083	79	C2HN2O+
69.0446	11	C3H5N2+
69.9924	64	C2NO2+
82.0526	13	C4H6N2+
83.0365	52	C4H5NO+
92.9335	22	CH2Br+
97.0398	11	C4H5N2O+
98.0475	53	C4H6N2O+
104.9333	33	C2H2Br+
105.9287	22	CHBrN+
106.9491	101	C2H4Br+
118.9492	41	C3H4Br+
131.9443	872	C3H3BrN+
133.96	177	C3H5BrN+
143.9443	22	C4H3BrN+
159.9393	17	C4H3BrNO+
161.9548	754	C4H5BrNO+
186.9502	228	C5H4BrN2O+
187.9341	999	C5H3BrNO2+
204.9607	764	C5H6BrN2O2+
