Mass spectrum: Desacetyl-Diltiazem; LC-ESI-QFT; MS2; CE: 40%; R=15000; [M+H]+
Name: Desacetyl-Diltiazem
Name: (2S,3S)-5-[2-(dimethylamino)ethyl]-3-hydroxy-2-(4-methoxyphenyl)-2,3-dihydro-1,5-benzothiazepin-4-one
Formula: C20H24N2O3S
Exact mass: 372.1507636
SMILES: CN(C)CCN1C2=CC=CC=C2SC(C(C1=O)O)C3=CC=C(C=C3)OC
InChI: InChI=1S/C20H24N2O3S/c1-21(2)12-13-22-16-6-4-5-7-17(16)26-19(18(23)20(22)24)14-8-10-15(25-3)11-9-14/h4-11,18-19,23H,12-13H2,1-3H3
Instrument: Exploris 240 Thermo Scientific
Instrument type: LC-ESI-QFT
Ms type: MS2
Ion mode: POSITIVE
Ionization: ESI
Fragmentation mode: HCD
Collision energy: 40 % (nominal)
Resolution: 15000
Column name: XBridge C18 3.5um, 2.1x50mm, Waters
Retention time: 5.114 min
Base peak: 373.1576
Precursor m/z: 373.158
Precursor type: [M+H]+
m/z	relative intensity	assigned
72.0807	169	C4H10N+
109.0106	433	C6H5S+
111.0263	12	C6H7S+
117.057	18	C8H7N+
118.0651	11	C8H8N+
121.0649	32	C8H9O+
136.0211	15	C7H6NS+
150.0371	999	C8H8NS+
178.0319	507	C9H8NOS+
202.0777	173	C16H10+
