Mass spectrum: Suberoylanilide hydroxamic acid; LC-ESI-QFT; MS2; CE: 120%; R=15000; [M+H]+
Name: Suberoylanilide hydroxamic acid
Name: Vorinostat
Name: N`-hydroxy-N-phenyloctanediamide
Formula: C14H20N2O3
Exact mass: 264.1473925
SMILES: C1=CC=C(C=C1)NC(=O)CCCCCCC(=O)NO
InChI: InChI=1S/C14H20N2O3/c17-13(15-12-8-4-3-5-9-12)10-6-1-2-7-11-14(18)16-19/h3-5,8-9,19H,1-2,6-7,10-11H2,(H,15,17)(H,16,18)
Instrument: Exploris 240 Thermo Scientific
Instrument type: LC-ESI-QFT
Ms type: MS2
Ion mode: POSITIVE
Ionization: ESI
Fragmentation mode: HCD
Collision energy: 120 % (nominal)
Resolution: 15000
Column name: XBridge C18 3.5um, 2.1x50mm, Waters
Retention time: 4.916 min
Base peak: 265.1544
Precursor m/z: 265.1547
Precursor type: [M+H]+
m/z	relative intensity	assigned
51.0229	112	C4H3+
53.0386	168	C4H5+
55.0178	244	C3H3O+
55.0542	999	C4H7+
65.0386	194	C5H5+
67.0542	143	C5H7+
69.0699	115	C5H9+
77.0385	971	C6H5+
79.0542	94	C6H7+
91.0541	167	C7H7+
92.0495	421	C6H6N+
93.0574	47	C6H7N+
93.0699	44	C7H9+
94.0651	742	C6H8N+
95.0491	677	C6H7O+
105.0448	418	C6H5N2+
