Mass spectrum: Amlodipine metabolite M9; LC-ESI-QFT; MS2; CE: 120%; R=17500; [M+H]+
Name: Amlodipine metabolite M9
Name: 3-Ethyl 5-methyl 2-((2-aminoethoxy)methyl)-4-(2-chlorophenyl)-6-methylpyridine-3,5-dicarboxylate
Name: 3-O-ethyl 5-O-methyl 2-(2-aminoethoxymethyl)-4-(2-chlorophenyl)-6-methylpyridine-3,5-dicarboxylate
Name: Dehydroamlodipine
Formula: C20H23ClN2O5
Exact mass: 406.1295495
SMILES: CCOC(=O)C1=C(C(=C(N=C1COCCN)C)C(=O)OC)C2=CC=CC=C2Cl
InChI: InChI=1S/C20H23ClN2O5/c1-4-28-20(25)18-15(11-27-10-9-22)23-12(2)16(19(24)26-3)17(18)13-7-5-6-8-14(13)21/h5-8H,4,9-11,22H2,1-3H3
Instrument: Exploris 240 Orbitrap Thermo Scientific
Instrument type: LC-ESI-QFT
Ms type: MS2
Ion mode: POSITIVE
Ionization: ESI
Fragmentation mode: HCD
Collision energy: 120 % (nominal)
Resolution: 17500
Column name: XBridge C18 3.5um, 2.1x50mm, Waters
Retention time: 6.888 min
Base peak: 407.1365
Precursor m/z: 407.1368
Precursor type: [M+H]+
m/z	relative intensity	assigned
99.0227	25	C8H3+
115.0543	62	C9H7+
125.0385	116	C10H5+
126.0464	635	C10H6+
138.0469	59	C11H6+
139.0542	999	C11H7+
140.0493	213	C10H6N+
140.0624	363	C11H8+
149.0151	236	C9H6Cl+
150.0465	167	C12H6+
151.0417	83	C11H5N+
152.0619	229	C12H8+
161.0153	107	C10H6Cl+
164.0492	45	C12H6N+
165.0575	47	C12H7N+
166.0652	495	C12H8N+
167.0729	551	C12H9N+
168.0577	120	C9H11ClN+
173.0153	281	C11H6Cl+
175.0304	164	C11H8Cl+
177.0575	69	C13H7N+
189.0207	73	C10H6ClN2+
194.0597	134	C13H8NO+
195.0679	83	C13H9NO+
200.0268	41	C12H7ClN+
201.0344	51	C12H8ClN+
202.0177	49	C12H7ClO+
214.0053	44	C15H2O2+
229.029	127	C13H8ClNO+
230.0372	136	C13H9ClNO+
