Mass spectrum: Hexanamide; LC-ESI-QFT; MS2; CE: 60%; R=15000; [M+H]+
Name: Hexanamide
Formula: C6H13NO
Exact mass: 115.099714
SMILES: CCCCCC(=O)N
InChI: InChI=1S/C6H13NO/c1-2-3-4-5-6(7)8/h2-5H2,1H3,(H2,7,8)
Instrument: Exploris 240 Thermo Scientific
Instrument type: LC-ESI-QFT
Ms type: MS2
Ion mode: POSITIVE
Ionization: ESI
Fragmentation mode: HCD
Collision energy: 60 % (nominal)
Resolution: 15000
Column name: XBridge C18 3.5um, 2.1x50mm, Waters
Retention time: 4.340 min
Base peak: 116.1069
Precursor m/z: 116.107
Precursor type: [M+H]+
m/z	relative intensity	assigned
41.0386	96	C3H5+
43.0542	247	C3H7+
44.0131	42	CH2NO+
57.0335	42	C3H5O+
57.0699	71	C4H9+
71.0493	23	C4H7O+
71.0856	248	C5H11+
74.0601	313	C3H8NO+
86.0601	16	C4H8NO+
88.0757	218	C4H10NO+
99.0804	31	C6H11O+
116.107	999	C6H14NO+
