Mass spectrum: N-Desmethylrosuvastatin; LC-ESI-QFT; MS2; CE: 75%; R=17500; [M+H]+
Name: N-Desmethylrosuvastatin
Name: 7-[4-(4-fluorophenyl)-2-(methanesulfonamido)-6-propan-2-ylpyrimidin-5-yl]-3,5-dihydroxyhept-6-enoic acid
Formula: C21H26FN3O6S
Exact mass: 467.1526348
SMILES: CC(C)C1=NC(=NC(=C1C=CC(CC(CC(=O)O)O)O)C2=CC=C(C=C2)F)NS(=O)(=O)C
InChI: InChI=1S/C21H26FN3O6S/c1-12(2)19-17(9-8-15(26)10-16(27)11-18(28)29)20(13-4-6-14(22)7-5-13)24-21(23-19)25-32(3,30)31/h4-9,12,15-16,26-27H,10-11H2,1-3H3,(H,28,29)(H,23,24,25)
Instrument: Exploris 240 Orbitrap Thermo Scientific
Instrument type: LC-ESI-QFT
Ms type: MS2
Ion mode: POSITIVE
Ionization: ESI
Fragmentation mode: HCD
Collision energy: 75 % (nominal)
Resolution: 17500
Column name: XBridge C18 3.5um, 2.1x50mm, Waters
Retention time: 5.375 min
Base peak: 468.1593
Precursor m/z: 468.1599
Precursor type: [M+H]+
m/z	relative intensity	assigned
67.0543	29	C5H7+
69.0335	63	C4H5O+
70.065	21	C4H8N+
71.0127	46	C3H3O2+
79.0543	114	C6H7+
93.045	51	C5H5N2+
93.07	29	C7H9+
94.0653	27	C6H8N+
95.0605	18	C5H7N2+
95.0856	21	C7H11+
97.0287	51	C5H5O2+
108.081	31	C7H10N+
109.0451	45	C7H6F+
118.0653	27	C8H8N+
119.0606	48	C7H7N2+
121.0762	80	C7H9N2+
122.0398	172	C7H5FN+
130.0653	53	C9H8N+
132.0679	21	C8H8N2+
133.0447	586	C9H6F+
135.0918	81	C8H11N2+
137.1072	51	C8H13N2+
147.0608	92	C10H8F+
147.0916	65	C9H11N2+
148.0555	75	C9H7FN+
159.0609	37	C2H11N2O6+
161.0632	31	C7H13O2S+
162.0713	56	C10H9FN+
174.0719	107	C5H15FO3S+
175.067	288	C4H14FNO3S+
183.0606	40	C13H8F+
186.0711	49	C6H15FO3S+
187.0637	137	C2H16FO6S+
189.0824	78	C11H10FN2+
201.0699	46	C16H9+
213.0822	30	C13H10FN2+
214.0777	151	C9H14N2O2S+
214.103	220	C14H13FN+
216.0933	248	C17H12+
225.0836	61	C8H16FNO3S+
227.0838	156	C4H18FNO6S+
229.1006	287	C10H17N2O2S+
240.0931	362	C11H16N2O2S+
241.1001	385	C11H17N2O2S+
242.0737	129	C15H11FO2+
242.1083	999	C11H18N2O2S+
243.1159	254	C11H19N2O2S+
244.0887	32	C7H17FN2O4S+
256.1245	626	C15H15FN3+
258.1396	302	C12H22N2O2S+
268.1242	175	C13H20N2O2S+
286.1349	256	C16H17FN3O+
