Mass spectrum: Phenylethylmalonamide; LC-ESI-QFT; MS2; CE: 30%; R=17500; [M+H]+
Name: Phenylethylmalonamide
Name: PEMA
Name: 2-ethyl-2-phenylpropanediamide
Formula: C11H14N2O2
Exact mass: 206.1055277
SMILES: CCC(C1=CC=CC=C1)(C(=O)N)C(=O)N
InChI: InChI=1S/C11H14N2O2/c1-2-11(9(12)14,10(13)15)8-6-4-3-5-7-8/h3-7H,2H2,1H3,(H2,12,14)(H2,13,15)
Instrument: Exploris 240 Orbitrap Thermo Scientific
Instrument type: LC-ESI-QFT
Ms type: MS2
Ion mode: POSITIVE
Ionization: ESI
Fragmentation mode: HCD
Collision energy: 30 % (nominal)
Resolution: 17500
Column name: XBridge C18 3.5um, 2.1x50mm, Waters
Retention time: 3.165 min
Base peak: 207.1127
Precursor m/z: 207.1128
Precursor type: [M+H]+
m/z	relative intensity	assigned
91.0543	40	C7H7+
106.0651	79	C7H8N+
119.0855	248	C9H11+
134.0963	13	C9H12N+
145.0649	4	C10H9O+
162.0913	999	C10H12NO+
190.0865	4	C11H12NO2+
207.1129	84	C11H15N2O2+
