Mass spectrum: Eriodictyol; LC-ESI-QFT; MS2; CE: 75%; R=17500; [M+H]+
Name: Eriodictyol
Name: (+/-)-Eriodictyol
Name: 2-(3,4-dihydroxyphenyl)-5,7-dihydroxy-2,3-dihydrochromen-4-one
Formula: C15H12O6
Exact mass: 288.0633881
SMILES: C1C(OC2=CC(=CC(=C2C1=O)O)O)C3=CC(=C(C=C3)O)O
InChI: InChI=1S/C15H12O6/c16-8-4-11(19)15-12(20)6-13(21-14(15)5-8)7-1-2-9(17)10(18)3-7/h1-5,13,16-19H,6H2
Instrument: Exploris 240 Orbitrap Thermo Scientific
Instrument type: LC-ESI-QFT
Ms type: MS2
Ion mode: POSITIVE
Ionization: ESI
Fragmentation mode: HCD
Collision energy: 75 % (nominal)
Resolution: 17500
Column name: XBridge C18 3.5um, 2.1x50mm, Waters
Retention time: 5.359 min
Base peak: 289.0705
Precursor m/z: 289.0707
Precursor type: [M+H]+
m/z	relative intensity	assigned
55.0179	11	C3H3O+
65.0386	16	C5H5+
67.0178	71	C4H3O+
68.9971	65	C3HO2+
69.0335	65	C4H5O+
77.0384	8	C6H5+
79.054	29	C6H7+
81.0337	6	C5H5O+
83.0128	11	C4H3O2+
89.0386	168	C7H5+
93.0337	30	C6H5O+
95.049	5	C6H7O+
97.0283	34	C5H5O2+
107.0492	46	C7H7O+
111.0078	20	C5H3O3+
111.044	18	C6H7O2+
117.0335	222	C8H5O+
123.0441	53	C7H7O2+
131.0491	9	C9H7O+
135.044	269	C8H7O2+
139.039	7	C7H7O3+
145.0284	115	C9H5O2+
153.0182	999	C7H5O4+
159.0444	12	C10H7O2+
163.0389	109	C9H7O3+
179.0336	14	C9H7O4+
