Mass spectrum: 3-Desmethyltrimethoprim; LC-ESI-QFT; MS2; CE: 60%; R=17500; [M-H]-
Name: 3-Desmethyltrimethoprim
Name: 5-[(2,4-diaminopyrimidin-5-yl)methyl]-2,3-dimethoxyphenol
Formula: C13H16N4O3
Exact mass: 276.1222404
SMILES: COC1=CC(=CC(=C1OC)O)CC2=CN=C(N=C2N)N
InChI: InChI=1S/C13H16N4O3/c1-19-10-5-7(4-9(18)11(10)20-2)3-8-6-16-13(15)17-12(8)14/h4-6,18H,3H2,1-2H3,(H4,14,15,16,17)
Instrument: Exploris 240 Orbitrap Thermo Scientific
Instrument type: LC-ESI-QFT
Ms type: MS2
Ion mode: NEGATIVE
Ionization: ESI
Fragmentation mode: HCD
Collision energy: 60 % (nominal)
Resolution: 17500
Column name: XBridge C18 3.5um, 2.1x50mm, Waters
Retention time: 2.593 min
Base peak: 146.9386
Precursor m/z: 275.115
Precursor type: [M-H]-
m/z	relative intensity	assigned
159.0682	195	C8H7N4-
199.0619	226	C10H7N4O-
201.0778	585	C10H9N4O-
217.0731	198	C10H9N4O2-
227.0574	999	C11H7N4O2-
245.068	866	C11H9N4O3-
