Mass spectrum: O-Desarylranolazine; LC-ESI-QFT; MS2; CE: 120%; R=17500; [M+H]+
Name: O-Desarylranolazine
Name: 2-[4-(2,3-dihydroxypropyl)piperazin-1-yl]-N-(2,6-dimethylphenyl)acetamide
Formula: C17H27N3O3
Exact mass: 321.2052417
SMILES: CC1=C(C(=CC=C1)C)NC(=O)CN2CCN(CC2)CC(CO)O
InChI: InChI=1S/C17H27N3O3/c1-13-4-3-5-14(2)17(13)18-16(23)11-20-8-6-19(7-9-20)10-15(22)12-21/h3-5,15,21-22H,6-12H2,1-2H3,(H,18,23)
Instrument: Exploris 240 Orbitrap Thermo Scientific
Instrument type: LC-ESI-QFT
Ms type: MS2
Ion mode: POSITIVE
Ionization: ESI
Fragmentation mode: HCD
Collision energy: 120 % (nominal)
Resolution: 17500
Column name: XBridge C18 3.5um, 2.1x50mm, Waters
Retention time: 3.177 min
Base peak: 322.212
Precursor m/z: 322.2125
Precursor type: [M+H]+
m/z	relative intensity	assigned
56.0495	369	C3H6N+
57.0337	30	C3H5O+
57.0574	50	C3H7N+
58.0651	398	C3H8N+
67.0417	26	C4H5N+
68.0495	86	C4H6N+
69.0448	36	C3H5N2+
70.0651	999	C4H8N+
71.0728	27	C4H9N+
72.0443	19	C3H6NO+
72.0809	31	C4H10N+
82.0652	85	C5H8N+
83.0604	351	C4H7N2+
86.0602	39	C4H8NO+
97.076	425	C5H9N2+
98.0839	808	C5H10N2+
100.0757	86	C5H10NO+
112.0992	24	C6H12N2+
113.1075	18	C6H13N2+
