Mass spectrum: Quinine; LC-ESI-QFT; MS2; CE: 75%; R=17500; [M+H]+
Name: Quinine
Name: Cinchonan-9-ol, 6`-methoxy-, (8alpha,9R)-
Name: (5-ethenyl-1-azabicyclo[2.2.2]octan-2-yl)-(6-methoxyquinolin-4-yl)methanol
Formula: C20H24N2O2
Exact mass: 324.183778
SMILES: COC1=CC2=C(C=CN=C2C=C1)C(C3CC4CCN3CC4C=C)O
InChI: InChI=1S/C20H24N2O2/c1-3-13-12-22-9-7-14(13)10-19(22)20(23)16-6-8-21-18-5-4-15(24-2)11-17(16)18/h3-6,8,11,13-14,19-20,23H,1,7,9-10,12H2,2H3
Instrument: Exploris 240 Orbitrap Thermo Scientific
Instrument type: LC-ESI-QFT
Ms type: MS2
Ion mode: POSITIVE
Ionization: ESI
Fragmentation mode: HCD
Collision energy: 75 % (nominal)
Resolution: 17500
Column name: XBridge C18 3.5um, 2.1x50mm, Waters
Retention time: 4.008 min
Base peak: 325.1906
Precursor m/z: 325.1911
Precursor type: [M+H]+
m/z	relative intensity	assigned
53.0386	141	C4H5+
55.0542	149	C4H7+
56.0495	57	C3H6N+
65.0387	53	C5H5+
67.0542	207	C5H7+
68.0496	54	C4H6N+
70.0652	34	C4H8N+
77.0386	42	C6H5+
79.0542	999	C6H7+
80.0494	147	C5H6N+
81.0698	903	C6H9+
82.065	154	C5H8N+
91.0543	102	C7H7+
93.0577	21	C6H7N+
93.0701	60	C7H9+
94.065	79	C6H8N+
95.073	43	C6H9N+
95.0859	42	C7H11+
96.0808	26	C6H10N+
105.07	46	C8H9+
106.0651	52	C7H8N+
108.0806	111	C7H10N+
110.0965	45	C7H12N+
115.0542	27	C9H7+
117.0574	44	C8H7N+
120.0811	47	C8H10N+
122.0965	31	C8H12N+
124.1119	21	C8H14N+
134.0966	102	C9H12N+
136.112	37	C9H14N+
143.0732	91	C10H9N+
145.0527	59	C9H7NO+
154.0646	80	C11H8N+
155.0726	78	C11H9N+
157.0521	31	C10H7NO+
158.06	98	C10H8NO+
159.068	63	C10H9NO+
160.0756	406	C10H10NO+
166.0659	33	C12H8N+
167.0731	70	C12H9N+
169.0523	118	C11H7NO+
171.0676	50	C11H9NO+
172.0756	615	C11H10NO+
173.0836	138	C11H11NO+
174.0913	52	C11H12NO+
180.0808	31	C13H10N+
182.0606	39	C12H8NO+
183.0679	99	C12H9NO+
184.0758	241	C12H10NO+
186.0911	244	C12H12NO+
189.0779	44	C11H11NO2+
196.0762	40	C13H10NO+
198.0917	152	C13H12NO+
199.0868	37	C12H11N2O+
200.0703	35	C12H10NO2+
210.0918	101	C14H12NO+
224.1075	57	C15H14NO+
226.1232	23	C15H16NO+
236.1067	28	C16H14NO+
237.1027	34	C15H13N2O+
248.1076	25	C17H14NO+
253.1337	49	C16H17N2O+
