Mass spectrum: Fluroxypyr-meptyl; LC-ESI-QFT; MS2; CE: 45%; R=15000; [M+H]+
Name: Fluroxypyr-meptyl
Name: octan-2-yl 2-(4-amino-3,5-dichloro-6-fluoropyridin-2-yl)oxyacetate
Formula: C15H21Cl2FN2O3
Exact mass: 366.0913261
SMILES: CCCCCCC(C)OC(=O)COC1=NC(=C(C(=C1Cl)N)Cl)F
InChI: InChI=1S/C15H21Cl2FN2O3/c1-3-4-5-6-7-9(2)23-10(21)8-22-15-12(17)13(19)11(16)14(18)20-15/h9H,3-8H2,1-2H3,(H2,19,20)
Instrument: Exploris 240 Thermo Scientific
Instrument type: LC-ESI-QFT
Ms type: MS2
Ion mode: POSITIVE
Ionization: ESI
Fragmentation mode: HCD
Collision energy: 45 % (nominal)
Resolution: 15000
Column name: XBridge C18 3.5um, 2.1x50mm, Waters
Retention time: 14.531 min
Base peak: 389.0807
Precursor m/z: 367.0986
Precursor type: [M+H]+
m/z	relative intensity	assigned
57.07	32	C4H9+
71.0856	33	C5H11+
180.973	381	C5H4Cl2FN2+
196.9678	222	C5H4Cl2FN2O+
208.9679	999	C6H4Cl2FN2O+
236.9626	81	C7H4Cl2FN2O2+
