Mass spectrum: Oxazepam; LC-ESI-QFT; MS2; CE: 45%; R=15000; [M-H]-
Name: Oxazepam
Name: 7-chloro-3-hydroxy-5-phenyl-1,3-dihydro-1,4-benzodiazepin-2-one
Formula: C15H11ClN2O2
Exact mass: 286.0509053
SMILES: OC1N=C(C2=CC=CC=C2)C2=CC(Cl)=CC=C2NC1=O
InChI: InChI=1S/C15H11ClN2O2/c16-10-6-7-12-11(8-10)13(9-4-2-1-3-5-9)18-15(20)14(19)17-12/h1-8,15,20H,(H,17,19)
Instrument: Q Exactive Plus
Instrument type: LC-ESI-QFT
Ms type: MS2
Ion mode: NEGATIVE
Ionization: ESI
Fragmentation mode: HCD
Collision energy: 45 % (nominal)
Resolution: 15000
Column name: XBridge C18 3.5um, 2.1x50mm, Waters
Retention time: 7.819 min
Base peak: 285.0436
Precursor m/z: 285.0436
Precursor type: [M-H]-
Precursor intensity: 89764423.74
m/z	relative intensity	assigned
126.0114	331	C6H5ClN-
151.0068	429	C7H4ClN2-
154.0067	495	C7H5ClNO-
179.0018	977	C8H4ClN2O-
221.0722	179	C14H9N2O-
230.0377	241	C13H9ClNO-
240.0221	138	C14H7ClNO-
241.0302	999	C14H8ClNO-
242.0381	713	C14H9ClNO-
257.0488	514	C14H10ClN2O-
285.0439	144	C15H10ClN2O2-
