Mass spectrum: Lumiracoxib; LC-ESI-QFT; MS2; CE: 120%; R=15000; [M+H]+
Name: Lumiracoxib
Name: 2-[2-(2-chloro-6-fluoroanilino)-5-methylphenyl]acetic acid
Formula: C15H13ClFNO2
Exact mass: 293.0618846
SMILES: CC1=CC(=C(C=C1)NC2=C(C=CC=C2Cl)F)CC(=O)O
InChI: InChI=1S/C15H13ClFNO2/c1-9-5-6-13(10(7-9)8-14(19)20)18-15-11(16)3-2-4-12(15)17/h2-7,18H,8H2,1H3,(H,19,20)
Instrument: Exploris 240 Thermo Scientific
Instrument type: LC-ESI-QFT
Ms type: MS2
Ion mode: POSITIVE
Ionization: ESI
Fragmentation mode: HCD
Collision energy: 120 % (nominal)
Resolution: 15000
Column name: XBridge C18 3.5um, 2.1x50mm, Waters
Retention time: 11.419 min
Base peak: 294.0693
Precursor m/z: 294.0692
Precursor type: [M+H]+
m/z	relative intensity	assigned
165.0699	338	C13H9+
166.0653	13	C12H8N+
177.0573	622	C13H7N+
178.0647	53	C13H8N+
190.0649	92	C14H8N+
191.0729	157	C14H9N+
192.0807	426	C14H10N+
197.0637	205	C13H8FN+
198.0713	99	C13H9FN+
211.0794	179	C14H10FN+
212.087	999	C14H11FN+
213.0343	26	C13H8ClN+
