Mass spectrum: Tolperison; LC-ESI-QFT; MS2; CE: 30%; R=15000; [M+H]+
Name: Tolperison
Name: Tolperisone
Name: 2-methyl-1-(4-methylphenyl)-3-piperidin-1-ylpropan-1-one
Formula: C16H23NO
Exact mass: 245.1779644
SMILES: CC1=CC=C(C=C1)C(=O)C(C)CN2CCCCC2
InChI: InChI=1S/C16H23NO/c1-13-6-8-15(9-7-13)16(18)14(2)12-17-10-4-3-5-11-17/h6-9,14H,3-5,10-12H2,1-2H3
Instrument: Q Exactive
Instrument type: LC-ESI-QFT
Ms type: MS2
Ion mode: POSITIVE
Ionization: ESI
Fragmentation mode: HCD
Collision energy: 30 % (nominal)
Resolution: 15000
Column name: XBridge C18 3.5um, 2.1x50mm, Waters
Retention time: 4.674 min
Base peak: 246.1854
Precursor m/z: 246.1852
Precursor type: [M+H]+
Precursor intensity: 2167612433.58
m/z	relative intensity	assigned
98.0965	999	C6H12N+
246.1853	25	C16H24NO+
