Mass spectrum: Naloxone; LC-ESI-QFT; MS2; CE: 60%; R=15000; [M+H]+
Name: Naloxone
Name: Normorphinone, N-allyl-dihydro-14-hydroxy-
Name: (4R,4aS,7aR,12bS)-4a,9-bis(oxidanyl)-3-prop-2-enyl-2,4,5,6,7a,13-hexahydro-1H-4,12-methanobenzofuro[3,2-e]isoquinolin-7-one
Formula: C19H21NO4
Exact mass: 327.1470582
SMILES: C=CCN1CCC23C4C(=O)CCC2(C1CC5=C3C(=C(C=C5)O)O4)O
InChI: InChI=1S/C19H21NO4/c1-2-8-20-9-7-18-15-11-3-4-12(21)16(15)24-17(18)13(22)5-6-19(18,23)14(20)10-11/h2-4,14,17,21,23H,1,5-10H2
Instrument: Q Exactive
Instrument type: LC-ESI-QFT
Ms type: MS2
Ion mode: POSITIVE
Ionization: ESI
Fragmentation mode: HCD
Collision energy: 60 % (nominal)
Resolution: 15000
Column name: XBridge C18 3.5um, 2.1x50mm, Waters
Retention time: 2.392 min
Base peak: 328.1544
Precursor m/z: 328.1543
Precursor type: [M+H]+
Precursor intensity: 187894299.49
m/z	relative intensity	assigned
67.0541	27	C5H7+
68.0495	16	C4H6N+
80.0494	20	C5H6N+
84.0807	28	C5H10N+
94.0651	22	C6H8N+
96.0808	34	C6H10N+
115.054	21	C9H7+
117.0699	14	C9H9+
118.065	24	C8H8N+
120.0808	39	C8H10N+
129.0702	23	C10H9+
145.0647	29	C10H9O+
146.0601	26	C9H8NO+
147.0438	19	C9H7O2+
153.0696	85	C12H9+
158.096	64	C11H12N+
161.0596	209	C10H9O2+
167.0854	27	C13H11+
169.0647	19	C12H9O+
170.0964	12	C12H12N+
171.0439	23	C11H7O2+
173.0598	102	C11H9O2+
174.0546	50	C10H8NO2+
175.0755	17	C11H11O2+
181.0648	158	C13H9O+
184.052	59	C12H8O2+
184.0757	35	C12H10NO+
185.0596	131	C12H9O2+
187.0759	27	C12H11O2+
188.107	29	C12H14NO+
198.0907	48	C13H12NO+
199.0759	146	C13H11O2+
212.0705	999	C13H10NO2+
213.0919	48	C14H13O2+
222.0914	39	C15H12NO+
224.1068	44	C15H14NO+
226.0862	183	C14H12NO2+
226.1217	16	C15H16NO+
227.07	46	C14H11O3+
227.0941	91	C14H13NO2+
234.0912	17	C16H12NO+
236.1068	25	C16H14NO+
240.1021	148	C15H14NO2+
240.1389	22	C16H18NO+
241.1088	48	C15H15NO2+
250.0863	38	C16H12NO2+
252.1023	121	C16H14NO2+
253.1095	415	C16H15NO2+
268.0973	54	C16H14NO3+
268.133	317	C17H18NO2+
269.1048	126	C16H15NO3+
282.1495	27	C18H20NO2+
292.1326	21	C19H18NO2+
310.144	208	C19H20NO3+
