Mass spectrum: Isoxaflutole; LC-ESI-QFT; MS2; CE: 90%; R=15000; [M+H]+
Name: Isoxaflutole
Name: (5-cyclopropyl-1,2-oxazol-4-yl)-[2-methylsulfonyl-4-(trifluoromethyl)phenyl]methanone
Formula: C15H12F3NO4S
Exact mass: 359.0439135
SMILES: CS(=O)(=O)C1=C(C=CC(=C1)C(F)(F)F)C(=O)C1=C(ON=C1)C1CC1
InChI: InChI=1S/C15H12F3NO4S/c1-24(21,22)12-6-9(15(16,17)18)4-5-10(12)13(20)11-7-19-23-14(11)8-2-3-8/h4-8H,2-3H2,1H3
Instrument: Q Exactive Plus
Instrument type: LC-ESI-QFT
Ms type: MS2
Ion mode: POSITIVE
Ionization: ESI
Fragmentation mode: HCD
Collision energy: 90 % (nominal)
Resolution: 15000
Column name: XBridge C18 3.5um, 2.1x50mm, Waters
Retention time: 7.750 min
Base peak: 360.0514
Precursor m/z: 360.0512
Precursor type: [M+H]+
Precursor intensity: 182019318.31
m/z	relative intensity	assigned
51.0041	12	CHF2+
51.0229	24	C4H3+
57.0137	17	C3H2F+
59.9664	25	COS+
62.97	16	CFS+
62.9899	165	CH3OS+
63.0229	72	C5H3+
68.9794	48	C3HS+
68.9946	17	CF3+
69.0335	69	C4H5O+
70.0214	90	C4H3F+
75.0042	37	C3HF2+
75.023	84	C6H3+
78.9849	29	CH3O2S+
79.0178	108	C5H3O+
83.0292	150	C5H4F+
90.9989	46	C3HF2O+
94.0213	14	C6H3F+
94.995	181	C5H3S+
95.0491	30	C6H7O+
97.0108	53	C5H5S+
101.0198	808	C5H3F2+
108.0028	113	C6H4S+
109.0449	672	C7H6F+
110.0163	104	C6H3FO+
112.0319	314	C6H5FO+
113.0197	64	C6H3F2+
114.0276	50	C6H4F2+
115.0013	347	C5H4FS+
115.0356	20	C6H5F2+
118.0223	13	C5H4F2O+
119.0105	89	C5H2F3+
119.0294	37	C8H4F+
120.0182	565	C5H3F3+
121.0259	149	C5H4F3+
125.0198	182	C7H3F2+
127.0354	393	C7H5F2+
128.0268	31	C6H5FO2+
129.0146	191	C6H3F2O+
131.0305	40	C6H5F2O+
132.0182	999	C6H3F3+
133.026	232	C6H4F3+
134.034	27	C6H5F3+
139.0013	17	C7H4FS+
139.0355	27	C8H5F2+
141.0147	370	C7H3F2O+
141.0259	137	C3H8FNO2S+
142.0226	40	C7H4F2O+
143.0106	155	C7H2F3+
143.0302	188	C7H5F2O+
144.0182	158	C7H3F3+
144.992	140	C8HO3+
145.0261	196	C7H4F3+
147.0073	42	C6H5F2S+
147.0352	49	C5H9NO2S+
148.0134	23	C6H3F3O+
149.021	204	C6H4F3O+
156.9918	335	C7H3F2S+
159.0414	53	C8H6F3+
160.013	568	C7H3F3O+
161.0209	495	C7H4F3O+
162.0287	526	C7H5F3O+
163.9902	712	C6H3F3S+
164.9981	299	C6H4F3S+
166.0239	47	C6H5F3O2+
172.0127	220	C8H3F3O+
174.016	48	C4H8F2O3S+
175.036	21	C8H6F3O+
176.008	67	C7H3F3O2+
176.998	67	C7H4F3S+
177.0157	38	C7H4F3O2+
189.0155	111	C8H4F3O2+
192.9933	71	C9H2FO4+
195.0268	64	C7H6F3O3+
195.9799	110	C6H3F3O2S+
219.98	615	C8H3F3O2S+
220.9876	39	C8H4F3O2S+
