Mass spectrum: 13-cis Retinoic acid; LC-ESI-QFT; MS2; CE: 120%; R=15000; [M+H]+
Name: 13-cis Retinoic acid
Name: 3,7-Dimethyl-9-(2,6,6-trimethylcyclohex-1-en-1-yl)nona-2,4,6,8-tetraenoic acid
Name: 3,7-dimethyl-9-(2,6,6-trimethylcyclohexen-1-yl)nona-2,4,6,8-tetraenoic acid
Formula: C20H28O2
Exact mass: 300.2089301
SMILES: CC1=C(C(CCC1)(C)C)C=CC(=CC=CC(=CC(=O)O)C)C
InChI: InChI=1S/C20H28O2/c1-15(8-6-9-16(2)14-19(21)22)11-12-18-17(3)10-7-13-20(18,4)5/h6,8-9,11-12,14H,7,10,13H2,1-5H3,(H,21,22)
Instrument: Exploris 240 Thermo Scientific
Instrument type: LC-ESI-QFT
Ms type: MS2
Ion mode: POSITIVE
Ionization: ESI
Fragmentation mode: HCD
Collision energy: 120 % (nominal)
Resolution: 15000
Column name: XBridge C18 3.5um, 2.1x50mm, Waters
Retention time: 16.524 min
Base peak: 301.2161
Precursor m/z: 301.2162
Precursor type: [M+H]+
m/z	relative intensity	assigned
53.0386	135	C4H5+
55.0542	356	C4H7+
65.0386	168	C5H5+
67.0541	280	C5H7+
69.0336	30	C4H5O+
69.07	76	C5H9+
77.0385	175	C6H5+
79.0542	537	C6H7+
81.0698	286	C6H9+
91.0542	999	C7H7+
93.0699	94	C7H9+
95.0491	225	C6H7O+
95.0857	45	C7H11+
103.0544	136	C8H7+
105.0698	520	C8H9+
115.0543	381	C9H7+
116.0619	153	C9H8+
117.0697	240	C9H9+
119.0856	160	C9H11+
128.062	368	C10H8+
129.0699	434	C10H9+
130.0778	87	C10H10+
131.0857	161	C10H11+
141.0697	259	C11H9+
142.0778	162	C11H10+
143.0853	98	C11H11+
144.0934	49	C11H12+
145.0646	58	C10H9O+
145.1015	64	C11H13+
155.0856	85	C12H11+
156.0932	36	C12H12+
157.0648	49	C11H9O+
157.101	40	C12H13+
165.0702	44	C13H9+
