Mass spectrum: Chlormethiazole; LC-ESI-QFT; MS2; CE: 30%; R=15000; [M+H]+
Name: Chlormethiazole
Name: Clomethiazole
Name: 5-(2-chloroethyl)-4-methyl-1,3-thiazole
Formula: C6H8ClNS
Exact mass: 161.0065979
SMILES: CC1=C(SC=N1)CCCl
InChI: InChI=1S/C6H8ClNS/c1-5-6(2-3-7)9-4-8-5/h4H,2-3H2,1H3
Instrument: Q Exactive
Instrument type: LC-ESI-QFT
Ms type: MS2
Ion mode: POSITIVE
Ionization: ESI
Fragmentation mode: HCD
Collision energy: 30 % (nominal)
Resolution: 15000
Column name: XBridge C18 3.5um, 2.1x50mm, Waters
Retention time: 5.105 min
Base peak: 162.014
Precursor m/z: 162.0139
Precursor type: [M+H]+
Precursor intensity: 1130019796.06
m/z	relative intensity	assigned
113.0294	49	C5H7NS+
126.0373	54	C6H8NS+
162.014	999	C6H9ClNS+
