Mass spectrum: Bicalutamide; LC-ESI-QFT; MS2; CE: 15%; R=15000; [M+H]+
Name: Bicalutamide
Name: N-[4-cyano-3-(trifluoromethyl)phenyl]-3-(4-fluorophenyl)sulfonyl-2-hydroxy-2-methylpropanamide
Formula: C18H14F4N2O4S
Exact mass: 430.0610408
SMILES: CC(O)(CS(=O)(=O)C1=CC=C(F)C=C1)C(=O)NC1=CC(=C(C=C1)C#N)C(F)(F)F
InChI: InChI=1S/C18H14F4N2O4S/c1-17(26,10-29(27,28)14-6-3-12(19)4-7-14)16(25)24-13-5-2-11(9-23)15(8-13)18(20,21)22/h2-8,26H,10H2,1H3,(H,24,25)
Instrument: Q Exactive Plus
Instrument type: LC-ESI-QFT
Ms type: MS2
Ion mode: POSITIVE
Ionization: ESI
Fragmentation mode: HCD
Collision energy: 15 % (nominal)
Resolution: 15000
Column name: XBridge C18 3.5um, 2.1x50mm, Waters
Retention time: 8.374 min
Base peak: 164.9846
Precursor m/z: 431.0683
Precursor type: [M+H]+
Precursor intensity: 31308584.26
m/z	relative intensity	assigned
120.9954	10	C3H5O3S+
139.006	11	C3H7O4S+
158.991	49	C6H4FO2S+
187.0477	662	C8H6F3N2+
217.0329	999	C9H10FO3S+
