Mass spectrum: Suberoylanilide hydroxamic acid; LC-ESI-QFT; MS2; CE: 60%; R=15000; [M-H]-
Name: Suberoylanilide hydroxamic acid
Name: Vorinostat
Name: N`-hydroxy-N-phenyloctanediamide
Formula: C14H20N2O3
Exact mass: 264.1473925
SMILES: C1=CC=C(C=C1)NC(=O)CCCCCCC(=O)NO
InChI: InChI=1S/C14H20N2O3/c17-13(15-12-8-4-3-5-9-12)10-6-1-2-7-11-14(18)16-19/h3-5,8-9,19H,1-2,6-7,10-11H2,(H,15,17)(H,16,18)
Instrument: Exploris 240 Thermo Scientific
Instrument type: LC-ESI-QFT
Ms type: MS2
Ion mode: NEGATIVE
Ionization: ESI
Fragmentation mode: HCD
Collision energy: 60 % (nominal)
Resolution: 15000
Column name: XBridge C18 3.5um, 2.1x50mm, Waters
Retention time: 4.905 min
Base peak: 263.1397
Precursor m/z: 263.1401
Precursor type: [M-H]-
m/z	relative intensity	assigned
57.0346	19	C3H5O-
57.9935	35	CNO2-
58.0298	18	C2H4NO-
71.0137	47	C3H3O2-
83.0502	38	C5H7O-
92.0504	999	C6H6N-
111.0812	111	C7H11O-
126.0926	22	C7H12NO-
