Mass spectrum: Butachlor; LC-ESI-QFT; MS2; CE: 90%; R=15000; [M+H]+
Name: Butachlor
Name: N-(butoxymethyl)-2-chloro-N-(2,6-diethylphenyl)acetamide
Formula: C17H26ClNO2
Exact mass: 311.1652068
SMILES: CCCCOCN(C1=C(C=CC=C1CC)CC)C(=O)CCl
InChI: InChI=1S/C17H26ClNO2/c1-4-7-11-21-13-19(16(20)12-18)17-14(5-2)9-8-10-15(17)6-3/h8-10H,4-7,11-13H2,1-3H3
Instrument: Q Exactive Plus
Instrument type: LC-ESI-QFT
Ms type: MS2
Ion mode: POSITIVE
Ionization: ESI
Fragmentation mode: HCD
Collision energy: 90 % (nominal)
Resolution: 15000
Column name: XBridge C18 3.5um, 2.1x50mm, Waters
Retention time: 13.975 min
Base peak: 238.0992
Precursor m/z: 312.1725
Precursor type: [M+H]+
Precursor intensity: 52298997.27
m/z	relative intensity	assigned
53.002	23	C3HO+
55.0542	86	C4H7+
57.0698	799	C4H9+
90.0103	139	C3H5ClN+
91.0542	62	C7H7+
105.0698	61	C8H9+
117.0573	157	C8H7N+
118.0653	126	C8H8N+
130.0649	65	C9H8N+
131.073	56	C9H9N+
132.0807	999	C9H10N+
146.0963	158	C10H12N+
147.1042	395	C10H13N+
162.1273	42	C11H16N+
