Mass spectrum: Zafirlukast; LC-ESI-QFT; MS2; CE: 75%; R=15000; [M-H]-
Name: Zafirlukast
Name: cyclopentyl N-[3-[[2-methoxy-4-[(2-methylphenyl)sulfonylcarbamoyl]phenyl]methyl]-1-methylindol-5-yl]carbamate
Formula: C31H33N3O6S
Exact mass: 575.2090068
SMILES: COC1=C(CC2=CN(C)C3=C2C=C(NC(=O)OC2CCCC2)C=C3)C=CC(=C1)C(=O)NS(=O)(=O)C1=CC=CC=C1C
InChI: InChI=1S/C31H33N3O6S/c1-20-8-4-7-11-29(20)41(37,38)33-30(35)22-13-12-21(28(17-22)39-3)16-23-19-34(2)27-15-14-24(18-26(23)27)32-31(36)40-25-9-5-6-10-25/h4,7-8,11-15,17-19,25H,5-6,9-10,16H2,1-3H3,(H,32,36)(H,33,35)
Instrument: Q Exactive Plus
Instrument type: LC-ESI-QFT
Ms type: MS2
Ion mode: NEGATIVE
Ionization: ESI
Fragmentation mode: HCD
Collision energy: 75 % (nominal)
Resolution: 15000
Column name: XBridge C18 3.5um, 2.1x50mm, Waters
Retention time: 12.471 min
Base peak: 574.2016
Precursor m/z: 574.2017
Precursor type: [M-H]-
Precursor intensity: 37802295.28
m/z	relative intensity	assigned
61.9706	71	NOS-
63.9624	373	O2S-
65.0034	51	C4HO-
78.9733	66	HNO2S-
79.9573	39	O3S-
79.9812	131	H2NO2S-
81.0345	25	C5H5O-
83.0502	51	C5H7O-
91.019	286	C6H3O-
91.0553	65	C7H7-
106.0663	147	C7H8N-
107.0503	999	C7H7O-
117.0459	20	C7H5N2-
130.0537	48	C8H6N2-
131.0613	55	C8H7N2-
145.0771	22	C9H9N2-
155.0172	111	C7H7O2S-
159.0564	63	C9H7N2O-
170.0281	787	C7H8NO2S-
171.0123	42	C7H7O3S-
205.077	174	C14H9N2-
206.0851	114	C14H10N2-
209.0721	101	C13H9N2O-
231.0564	58	C15H7N2O-
232.0641	35	C15H8N2O-
233.0722	192	C15H9N2O-
234.0799	121	C15H10N2O-
235.0877	571	C15H11N2O-
237.0668	103	C14H9N2O2-
260.083	257	C16H10N3O-
261.0669	186	C16H9N2O2-
263.0468	31	C9H13NO6S-
276.0783	74	C10H16N2O5S-
279.0769	88	C16H11N2O3-
305.0573	51	C17H9N2O4-
