Mass spectrum: Paracetamol sulfate; LC-ESI-QFT; MS2; CE: 45%; R=17500; [M+H]+
Name: Paracetamol sulfate
Name: Acetaminophen sulfate
Name: (4-acetamidophenyl) hydrogen sulfate
Formula: C8H9NO5S
Exact mass: 231.0201434
SMILES: CC(=O)NC1=CC=C(C=C1)OS(=O)(=O)O
InChI: InChI=1S/C8H9NO5S/c1-6(10)9-7-2-4-8(5-3-7)14-15(11,12)13/h2-5H,1H3,(H,9,10)(H,11,12,13)
Instrument: Exploris 240 Orbitrap Thermo Scientific
Instrument type: LC-ESI-QFT
Ms type: MS2
Ion mode: POSITIVE
Ionization: ESI
Fragmentation mode: HCD
Collision energy: 45 % (nominal)
Resolution: 17500
Column name: XBridge C18 3.5um, 2.1x50mm, Waters
Retention time: 1.646 min
Base peak: 132.9582
Precursor m/z: 232.0274
Precursor type: [M+H]+
m/z	relative intensity	assigned
108.0442	13	C6H6NO+
110.06	342	C6H8NO+
134.0598	7	C8H8NO+
152.0705	999	C8H10NO2+
232.0276	9	C8H10NO5S+
