Mass spectrum: 3-Hydroxycotinine; LC-ESI-QFT; MS2; CE: 90%; R=17500; [M+H]+
Name: 3-Hydroxycotinine
Name: 2-Pyrrolidinone, 3-hydroxy-1-methyl-5-(3-pyridinyl)-
Name: 3-hydroxy-1-methyl-5-pyridin-3-ylpyrrolidin-2-one
Formula: C10H12N2O2
Exact mass: 192.0898776
SMILES: CN1C(CC(C1=O)O)C2=CN=CC=C2
InChI: InChI=1S/C10H12N2O2/c1-12-8(5-9(13)10(12)14)7-3-2-4-11-6-7/h2-4,6,8-9,13H,5H2,1H3
Instrument: Exploris 240 Orbitrap Thermo Scientific
Instrument type: LC-ESI-QFT
Ms type: MS2
Ion mode: POSITIVE
Ionization: ESI
Fragmentation mode: HCD
Collision energy: 90 % (nominal)
Resolution: 17500
Column name: XBridge C18 3.5um, 2.1x50mm, Waters
Retention time: 0.962 min
Base peak: 193.0971
Precursor m/z: 193.0972
Precursor type: [M+H]+
m/z	relative intensity	assigned
53.0386	9	C4H5+
58.0651	192	C3H8N+
79.0543	14	C6H7+
80.0495	999	C5H6N+
86.0601	96	C4H8NO+
91.0538	5	C7H7+
92.0492	6	C6H6N+
93.0573	9	C6H7N+
94.065	13	C6H8N+
96.0443	3	C5H6NO+
106.0651	76	C7H8N+
108.0443	30	C6H6NO+
114.0551	16	C5H8NO2+
116.0491	6	C8H6N+
118.0651	26	C8H8N+
134.0601	94	C8H8NO+
136.0395	11	C7H6NO2+
136.0759	10	C8H10NO+
149.0707	15	C8H9N2O+
193.0971	17	C10H13N2O2+
