Mass spectrum: Eriodictyol; LC-ESI-QFT; MS2; CE: 90%; R=17500; [M-H]-
Name: Eriodictyol
Name: (+/-)-Eriodictyol
Name: 2-(3,4-dihydroxyphenyl)-5,7-dihydroxy-2,3-dihydrochromen-4-one
Formula: C15H12O6
Exact mass: 288.0633881
SMILES: C1C(OC2=CC(=CC(=C2C1=O)O)O)C3=CC(=C(C=C3)O)O
InChI: InChI=1S/C15H12O6/c16-8-4-11(19)15-12(20)6-13(21-14(15)5-8)7-1-2-9(17)10(18)3-7/h1-5,13,16-19H,6H2
Instrument: Exploris 240 Orbitrap Thermo Scientific
Instrument type: LC-ESI-QFT
Ms type: MS2
Ion mode: NEGATIVE
Ionization: ESI
Fragmentation mode: HCD
Collision energy: 90 % (nominal)
Resolution: 17500
Column name: XBridge C18 3.5um, 2.1x50mm, Waters
Retention time: 5.348 min
Base peak: 287.056
Precursor m/z: 287.0561
Precursor type: [M-H]-
m/z	relative intensity	assigned
57.0345	5	C3H5O-
63.024	88	C5H3-
65.0033	283	C4HO-
79.0553	8	C6H7-
83.0139	70	C4H3O2-
89.0397	12	C7H5-
91.0554	11	C7H7-
106.0424	9	C7H6O-
107.0139	47	C6H3O2-
107.0502	40	C7H7O-
108.0215	8	C6H4O2-
109.0295	14	C6H5O2-
117.0345	21	C8H5O-
134.0373	238	C8H6O2-
135.0451	999	C8H7O2-
