Mass spectrum: Nitrofurantoin; LC-ESI-QFT; MS2; CE: 15%; R=15000; [M+H]+
Name: Nitrofurantoin
Name: 1-[(5-Nitro-2-furanyl)methylideneamino]imidazolidine-2,4-dione
Name: 1-[(5-nitrofuran-2-yl)methylideneamino]imidazolidine-2,4-dione
Formula: C8H6N4O5
Exact mass: 238.0338193
SMILES: [O-][N+](=O)C1=CC=C(O1)C=NN1CC(=O)NC1=O
InChI: InChI=1S/C8H6N4O5/c13-6-4-11(8(14)10-6)9-3-5-1-2-7(17-5)12(15)16/h1-3H,4H2,(H,10,13,14)
Instrument: Q Exactive Plus
Instrument type: LC-ESI-QFT
Ms type: MS2
Ion mode: POSITIVE
Ionization: ESI
Fragmentation mode: HCD
Collision energy: 15 % (nominal)
Resolution: 15000
Column name: XBridge C18 3.5um, 2.1x50mm, Waters
Retention time: 3.220 min
Base peak: 164.9847
Precursor m/z: 239.0411
Precursor type: [M+H]+
Precursor intensity: 8988663.19
m/z	relative intensity	assigned
67.0417	60	C4H5N+
82.005	16	C4H2O2+
83.0366	29	C4H5NO+
95.0366	356	C5H5NO+
98.035	78	C3H4N3O+
100.0268	39	C3H4N2O2+
110.0237	10	C5H4NO2+
111.0316	110	C5H5NO2+
121.0398	19	C6H5N2O+
122.0111	23	C5H2N2O2+
126.0299	214	C4H4N3O2+
138.0424	39	C6H6N2O2+
139.014	145	C5H3N2O3+
149.0347	77	C7H5N2O2+
150.0421	12	C7H6N2O2+
168.0404	153	C6H6N3O3+
193.0483	57	C8H7N3O3+
212.0296	11	C7H6N3O5+
222.0384	196	C8H6N4O4+
239.0412	999	C8H7N4O5+
