Mass spectrum: Ethylene glycol diglycidyl ether; LC-ESI-QFT; MS2; CE: 15%; R=15000; [M+H]+
Name: Ethylene glycol diglycidyl ether
Name: 2-[2-(oxiran-2-ylmethoxy)ethoxymethyl]oxirane
Formula: C8H14O4
Exact mass: 174.0892089
SMILES: C(COCC1CO1)OCC1CO1
InChI: InChI=1S/C8H14O4/c1(9-3-7-5-11-7)2-10-4-8-6-12-8/h7-8H,1-6H2
Instrument: Q Exactive Plus
Instrument type: LC-ESI-QFT
Ms type: MS2
Ion mode: POSITIVE
Ionization: ESI
Fragmentation mode: HCD
Collision energy: 15 % (nominal)
Resolution: 15000
Column name: XBridge C18 3.5um, 2.1x50mm, Waters
Retention time: 2.678 min
Base peak: 192.1231
Precursor m/z: 175.0965
Precursor type: [M+H]+
Precursor intensity: 17081594.97
m/z	relative intensity	assigned
55.0542	36	C4H7+
57.0335	999	C3H5O+
59.0492	311	C3H7O+
71.0491	65	C4H7O+
73.0284	47	C3H5O2+
73.0648	43	C4H9O+
75.0441	103	C3H7O2+
83.049	49	C5H7O+
87.0441	73	C4H7O2+
89.0596	53	C4H9O2+
99.0441	287	C5H7O2+
101.0598	588	C5H9O2+
103.0756	16	C5H11O2+
113.0598	22	C6H9O2+
119.0702	68	C5H11O3+
131.0703	16	C6H11O3+
175.0966	640	C8H15O4+
