Mass spectrum: Diphenhydramine N-glucuronide; LC-ESI-QFT; MS2; CE: 15%; R=17500; [M+H]+
Name: Diphenhydramine N-glucuronide
Name: 6-[2-benzhydryloxyethyl(dimethyl)azaniumyl]-3,4,5-trihydroxyoxane-2-carboxylate
Formula: C23H29NO7
Exact mass: 431.1944023
SMILES: C[N+](C)(CCOC(C1=CC=CC=C1)C2=CC=CC=C2)C3C(C(C(C(O3)C(=O)[O-])O)O)O
InChI: InChI=1S/C23H29NO7/c1-24(2,22-19(27)17(25)18(26)21(31-22)23(28)29)13-14-30-20(15-9-5-3-6-10-15)16-11-7-4-8-12-16/h3-12,17-22,25-27H,13-14H2,1-2H3
Instrument: Exploris 240 Orbitrap Thermo Scientific
Instrument type: LC-ESI-QFT
Ms type: MS2
Ion mode: POSITIVE
Ionization: ESI
Fragmentation mode: HCD
Collision energy: 15 % (nominal)
Resolution: 17500
Column name: XBridge C18 3.5um, 2.1x50mm, Waters
Retention time: 5.862 min
Base peak: 432.2014
Precursor m/z: 432.2017
Precursor type: [M+H]+
m/z	relative intensity	assigned
167.0856	126	C13H11+
256.1697	190	C17H22NO+
432.2019	999	C23H30NO7+
