Mass spectrum: Hydroxychloroquine; LC-ESI-QFT; MS2; CE: 30%; R=15000; [M+H]+
Name: Hydroxychloroquine
Name: 2-[4-[(7-chloroquinolin-4-yl)amino]pentyl-ethylamino]ethanol
Name: 2-[4-[(7-chloranylquinolin-4-yl)amino]pentyl-ethyl-amino]ethanol
Formula: C18H26ClN3O
Exact mass: 335.1764401
SMILES: CCN(CCCC(C)NC1=C2C=CC(=CC2=NC=C1)Cl)CCO
InChI: InChI=1S/C18H26ClN3O/c1-3-22(11-12-23)10-4-5-14(2)21-17-8-9-20-18-13-15(19)6-7-16(17)18/h6-9,13-14,23H,3-5,10-12H2,1-2H3,(H,20,21)
Instrument: Q Exactive
Instrument type: LC-ESI-QFT
Ms type: MS2
Ion mode: POSITIVE
Ionization: ESI
Fragmentation mode: HCD
Collision energy: 30 % (nominal)
Resolution: 15000
Column name: XBridge C18 3.5um, 2.1x50mm, Waters
Retention time: 2.686 min
Base peak: 168.5957
Precursor m/z: 336.1837
Precursor type: [M+H]+
Precursor intensity: 84149324.3
m/z	relative intensity	assigned
102.0913	17	C5H12NO+
158.1541	198	C9H20NO+
179.037	24	C9H8ClN2+
191.0369	15	C10H8ClN2+
247.0998	999	C14H16ClN2+
336.1838	314	C18H27ClN3O+
