Mass spectrum: Edoxaban; LC-ESI-QFT; MS2; CE: 60%; R=15000; [M+H]+
Name: Edoxaban
Name: Edoxaban impurity 5
Name: N`-(5-chloranylpyridin-2-yl)-N-[(1S,2R,4S)-4-(dimethylcarbamoyl)-2-[(5-methyl-6,7-dihydro-4H-[1,3]thiazolo[5,4-c]pyridin-2-yl)carbonylamino]cyclohexyl]ethanediamide
Formula: C24H30ClN7O4S
Exact mass: 547.1768511
SMILES: CN1CCC2=C(C1)SC(=N2)C(=O)NC3CC(CCC3NC(=O)C(=O)NC4=NC=C(C=C4)Cl)C(=O)N(C)C
InChI: InChI=1S/C24H30ClN7O4S/c1-31(2)24(36)13-4-6-15(27-20(33)21(34)30-19-7-5-14(25)11-26-19)17(10-13)28-22(35)23-29-16-8-9-32(3)12-18(16)37-23/h5,7,11,13,15,17H,4,6,8-10,12H2,1-3H3,(H,27,33)(H,28,35)(H,26,30,34)
Instrument: Q Exactive
Instrument type: LC-ESI-QFT
Ms type: MS2
Ion mode: POSITIVE
Ionization: ESI
Fragmentation mode: HCD
Collision energy: 60 % (nominal)
Resolution: 15000
Column name: XBridge C18 3.5um, 2.1x50mm, Waters
Retention time: 4.818 min
Base peak: 548.1841
Precursor m/z: 548.1841
Precursor type: [M+H]+
Precursor intensity: 580986582.02
m/z	relative intensity	assigned
72.0444	999	C3H6NO+
79.0542	116	C6H7+
94.0652	193	C6H8N+
95.073	48	C6H9N+
96.0808	238	C6H10N+
107.0491	74	C7H7O+
112.0216	136	C5H6NS+
122.0599	61	C7H8NO+
124.0757	90	C7H10NO+
129.0213	79	C5H6ClN2+
139.087	28	C4H14ClN3+
152.1071	160	C9H14NO+
153.0481	739	C7H9N2S+
155.0007	550	C6H4ClN2O+
155.0279	27	C3H10ClN3S+
155.0633	47	C7H11N2S+
156.012	20	C3H9ClN2OS+
158.0272	44	C6H8NO2S+
177.0482	50	C9H9N2S+
195.1133	35	C10H15N2O2+
199.0535	92	C8H11N2O2S+
205.0795	96	C11H13N2S+
232.0906	47	C12H14N3S+
233.0736	58	C12H13N2OS+
275.133	14	C14H19N4S+
