Mass spectrum: N-(3,4-Dichlorophenyl)propanamide; LC-ESI-QFT; MS2; CE: 75%; R=15000; [M+H]+
Name: N-(3,4-Dichlorophenyl)propanamide
Name: Propanil
Formula: C9H9Cl2NO
Exact mass: 217.0061193
SMILES: CCC(=O)NC1=CC=C(Cl)C(Cl)=C1
InChI: InChI=1S/C9H9Cl2NO/c1-2-9(13)12-6-3-4-7(10)8(11)5-6/h3-5H,2H2,1H3,(H,12,13)
Instrument: Q Exactive Plus
Instrument type: LC-ESI-QFT
Ms type: MS2
Ion mode: POSITIVE
Ionization: ESI
Fragmentation mode: HCD
Collision energy: 75 % (nominal)
Resolution: 15000
Column name: XBridge C18 3.5um, 2.1x50mm, Waters
Retention time: 9.088 min
Base peak: 218.0133
Precursor m/z: 218.0134
Precursor type: [M+H]+
Precursor intensity: 275493768.62
m/z	relative intensity	assigned
57.0335	106	C3H5O+
127.0182	999	C6H6ClN+
161.987	66	C6H6Cl2N+
