Mass spectrum: HFPO-TA; LC-ESI-QFT; MS2; CE: 60%; R=17500; [M-H]-
Name: HFPO-TA
Name: 2,3,3,3-Tetrafluoro-2-(1,1,2,3,3,3-hexafluoro-2-(perfluoropropoxy)propoxy)propanoic acid
Name: 2,3,3,3-tetrafluoro-2-[1,1,2,3,3,3-hexafluoro-2-(1,1,2,2,3,3,3-heptafluoropropoxy)propoxy]propanoic acid
Formula: C9HF17O4
Exact mass: 495.960338252
SMILES: C(=O)(C(C(F)(F)F)(OC(C(C(F)(F)F)(OC(C(C(F)(F)F)(F)F)(F)F)F)(F)F)F)O
InChI: InChI=1S/C9HF17O4/c10-2(1(27)28,5(14,15)16)29-9(25,26)4(13,7(20,21)22)30-8(23,24)3(11,12)6(17,18)19/h(H,27,28)
Instrument: Exploris 240 Orbitrap Thermo Scientific
Instrument type: LC-ESI-QFT
Ms type: MS2
Ion mode: NEGATIVE
Ionization: ESI
Fragmentation mode: HCD
Collision energy: 60 % (nominal)
Resolution: 17500
Column name: XBridge C18 3.5um, 2.1x50mm, Waters
Retention time: 10.868 min
Base peak: 184.9842
Precursor m/z: 494.9531
Precursor type: [M-H]-
m/z	relative intensity	assigned
118.9927	999	C2F5-
