Mass spectrum: Prothioconazole; LC-ESI-QFT; MS2; CE: 90%; R=15000; [M+H]+
Name: Prothioconazole
Name: 2-[2-(1-chlorocyclopropyl)-3-(2-chlorophenyl)-2-hydroxypropyl]-1H-1,2,4-triazole-3-thione
Formula: C14H15Cl2N3OS
Exact mass: 343.0312885
SMILES: C1CC1(C(CC2=CC=CC=C2Cl)(CN3C(=S)N=CN3)O)Cl
InChI: InChI=1S/C14H15Cl2N3OS/c15-11-4-2-1-3-10(11)7-14(20,13(16)5-6-13)8-19-12(21)17-9-18-19/h1-4,9,20H,5-8H2,(H,17,18,21)
Instrument: Exploris 240 Thermo Scientific
Instrument type: LC-ESI-QFT
Ms type: MS2
Ion mode: POSITIVE
Ionization: ESI
Fragmentation mode: HCD
Collision energy: 90 % (nominal)
Resolution: 15000
Column name: XBridge C18 3.5um, 2.1x50mm, Waters
Retention time: 11.770 min
Base peak: 344.0382
Precursor m/z: 344.0386
Precursor type: [M+H]+
m/z	relative intensity	assigned
55.029	94	C2H3N2+
89.0384	99	C7H5+
98.9992	46	C5H4Cl+
102.0119	268	C2H4N3S+
114.0119	55	C3H4N3S+
115.0541	48	C9H7+
125.0151	999	C7H6Cl+
126.0464	22	C10H6+
128.0619	183	C10H8+
141.0698	19	C11H9+
145.0645	21	C10H9O+
149.015	186	C9H6Cl+
152.0619	233	CH15ClN3OS+
153.0697	779	CH16ClN3OS+
154.0775	328	C12H10+
155.0607	49	C10H7N2+
155.0852	112	C12H11+
162.0229	228	C10H7Cl+
166.0428	115	C7H8N3S+
175.031	38	C11H8Cl+
189.0214	32	C10H6ClN2+
