Mass spectrum: Alachlor; LC-ESI-QFT; MS2; CE: 90%; R=15000; [M+H]+
Name: Alachlor
Name: 2-chloro-N-(2,6-diethylphenyl)-N-(methoxymethyl)acetamide
Formula: C14H20ClNO2
Exact mass: 269.1182566
SMILES: CCC1=CC=CC(CC)=C1N(COC)C(=O)CCl
InChI: InChI=1S/C14H20ClNO2/c1-4-11-7-6-8-12(5-2)14(11)16(10-18-3)13(17)9-15/h6-8H,4-5,9-10H2,1-3H3
Instrument: Q Exactive Plus
Instrument type: LC-ESI-QFT
Ms type: MS2
Ion mode: POSITIVE
Ionization: ESI
Fragmentation mode: HCD
Collision energy: 90 % (nominal)
Resolution: 15000
Column name: XBridge C18 3.5um, 2.1x50mm, Waters
Retention time: 10.464 min
Base peak: 238.0993
Precursor m/z: 270.1255
Precursor type: [M+H]+
Precursor intensity: 97784955.41
m/z	relative intensity	assigned
55.0416	17	C3H5N+
76.9788	43	C2H2ClO+
90.0105	122	C3H5ClN+
91.0542	84	C7H7+
105.0699	70	C8H9+
117.0573	158	C8H7N+
117.0697	21	C9H9+
118.065	124	C8H8N+
119.0728	85	C8H9N+
130.065	77	C9H8N+
131.0731	50	C9H9N+
132.0807	999	C9H10N+
133.0885	40	C9H11N+
144.0808	68	C10H10N+
146.0963	217	C10H12N+
147.1042	447	C10H13N+
158.0963	29	C11H12N+
162.1277	73	C11H16N+
