Mass spectrum: Pilocarpine; LC-ESI-QFT; MS2; CE: 60%; R=15000; [M+H]+
Name: Pilocarpine
Name: (3S,4R)-3-ethyl-4-[(3-methylimidazol-4-yl)methyl]oxolan-2-one
Name: 3-ethyl-4-[(3-methylimidazol-4-yl)methyl]oxolan-2-one
Formula: C11H16N2O2
Exact mass: 208.1211778
SMILES: CCC1C(COC1=O)CC2=CN=CN2C
InChI: InChI=1S/C11H16N2O2/c1-3-10-8(6-15-11(10)14)4-9-5-12-7-13(9)2/h5,7-8,10H,3-4,6H2,1-2H3
Instrument: Exploris 240 Thermo Scientific
Instrument type: LC-ESI-QFT
Ms type: MS2
Ion mode: POSITIVE
Ionization: ESI
Fragmentation mode: HCD
Collision energy: 60 % (nominal)
Resolution: 15000
Column name: XBridge C18 3.5um, 2.1x50mm, Waters
Retention time: 1.369 min
Base peak: 209.128
Precursor m/z: 209.1285
Precursor type: [M+H]+
m/z	relative intensity	assigned
54.0338	113	C3H4N+
55.0416	45	C3H5N+
55.0542	16	C4H7+
56.0494	14	C3H6N+
67.0542	11	C5H7+
68.0494	221	C4H6N+
80.0495	34	C5H6N+
81.0447	118	C4H5N2+
83.0604	22	C4H7N2+
94.0652	41	C6H8N+
95.0603	999	C5H7N2+
96.0682	502	C5H8N2+
109.0761	19	C6H9N2+
121.076	47	C7H9N2+
135.0918	19	C8H11N2+
