Mass spectrum: Flumioxazin; LC-ESI-QFT; MS2; CE: 180%; R=15000; [M+H]+
Name: Flumioxazin
Name: 2-(7-fluoro-3-oxo-4-prop-2-ynyl-1,4-benzoxazin-6-yl)-4,5,6,7-tetrahydroisoindole-1,3-dione
Formula: C19H15FN2O4
Exact mass: 354.1015852
SMILES: FC1=CC2=C(C=C1N1C(=O)C3=C(CCCC3)C1=O)N(CC#C)C(=O)CO2
InChI: InChI=1S/C19H15FN2O4/c1-2-7-21-15-9-14(13(20)8-16(15)26-10-17(21)23)22-18(24)11-5-3-4-6-12(11)19(22)25/h1,8-9H,3-7,10H2
Instrument: Q Exactive Plus
Instrument type: LC-ESI-QFT
Ms type: MS2
Ion mode: POSITIVE
Ionization: ESI
Fragmentation mode: HCD
Collision energy: 180 % (nominal)
Resolution: 15000
Column name: XBridge C18 3.5um, 2.1x50mm, Waters
Retention time: 8.237 min
Base peak: 355.1091
Precursor m/z: 355.1089
Precursor type: [M+H]+
Precursor intensity: 108809856.34
m/z	relative intensity	assigned
50.0151	558	C4H2+
51.0229	999	C4H3+
52.0182	87	C3H2N+
53.0022	91	C3HO+
53.0386	296	C4H5+
57.0135	447	C3H2F+
61.0073	66	C5H+
62.0151	103	C5H2+
63.0229	263	C5H3+
64.0181	33	C4H2N+
65.0386	101	C5H5+
66.0339	15	C4H4N+
67.0541	17	C5H7+
68.0056	43	C4HF+
69.0135	75	C4H2F+
70.0214	100	C4H3F+
74.0151	386	C6H2+
75.0229	948	C6H3+
76.0181	609	C5H2N+
77.0385	216	C6H5+
78.0338	38	C5H4N+
79.0542	298	C6H7+
81.0135	310	C5H2F+
81.0336	23	C5H5O+
82.0087	44	C4HFN+
82.0212	25	C5H3F+
83.0292	138	C5H4F+
87.023	82	C7H3+
89.0386	144	C7H5+
90.0466	17	C7H6+
94.0213	56	C6H3F+
95.0492	634	C6H7O+
96.0243	108	C5H3FN+
96.0372	17	C6H5F+
98.0151	83	C8H2+
99.0229	110	C8H3+
100.0182	120	C7H2N+
100.0308	17	C8H4+
102.0463	29	C8H6+
105.0448	197	C6H5N2+
106.0214	25	C7H3F+
107.0292	316	C7H4F+
108.0367	24	C7H5F+
113.039	89	C9H5+
114.0343	85	C8H4N+
115.054	55	C9H7+
119.0495	25	C8H7O+
120.037	36	C8H5F+
124.019	70	C6H3FNO+
129.0444	56	C8H5N2+
131.0289	24	C9H4F+
132.0243	21	C8H3FN+
133.0449	39	C9H6F+
139.0542	45	C11H7+
140.0493	46	C10H6N+
150.0469	44	C12H6+
188.0501	12	C11H7FNO+
