Mass spectrum: Bromuconazole; LC-ESI-QFT; MS2; CE: 180%; R=15000; [M+H]+
Name: Bromuconazole
Name: 1-[[4-bromo-2-(2,4-dichlorophenyl)oxolan-2-yl]methyl]-1,2,4-triazole
Formula: C13H12BrCl2N3O
Exact mass: 374.9540795
SMILES: ClC1=CC(Cl)=C(C=C1)C1(CN2C=NC=N2)CC(Br)CO1
InChI: InChI=1S/C13H12BrCl2N3O/c14-9-4-13(20-5-9,6-19-8-17-7-18-19)11-2-1-10(15)3-12(11)16/h1-3,7-9H,4-6H2
Instrument: Q Exactive Plus
Instrument type: LC-ESI-QFT
Ms type: MS2
Ion mode: POSITIVE
Ionization: ESI
Fragmentation mode: HCD
Collision energy: 180 % (nominal)
Resolution: 15000
Column name: XBridge C18 3.5um, 2.1x50mm, Waters
Retention time: 11.235 min
Base peak: 377.9593
Precursor m/z: 375.9614
Precursor type: [M+H]+
Precursor intensity: 139651018.12
m/z	relative intensity	assigned
62.0151	225	C5H2+
63.0229	501	C5H3+
70.04	95	C2H4N3+
72.984	699	C3H2Cl+
74.0151	254	C6H2+
75.0229	44	C6H3+
82.945	67	CHCl2+
88.0308	61	C7H4+
89.0386	999	C7H5+
96.984	151	C5H2Cl+
98.9996	115	C5H4Cl+
106.9449	15	C3HCl2+
108.984	43	C6H2Cl+
122.9997	107	C7H4Cl+
124.0076	14	C7H5Cl+
128.0622	30	C10H8+
132.9606	35	C5H3Cl2+
