Mass spectrum: 6-O-Desmethyl-mycophenolic acid; LC-ESI-QFT; MS2; CE: 90%; R=17500; [M-H]-
Name: 6-O-Desmethyl-mycophenolic acid
Name: 6-(4,6-dihydroxy-7-methyl-3-oxo-1H-2-benzofuran-5-yl)-4-methylhex-4-enoic acid
Formula: C16H18O6
Exact mass: 306.1103383
SMILES: CC1=C2COC(=O)C2=C(C(=C1O)CC=C(C)CCC(=O)O)O
InChI: InChI=1S/C16H18O6/c1-8(4-6-12(17)18)3-5-10-14(19)9(2)11-7-22-16(21)13(11)15(10)20/h3,19-20H,4-7H2,1-2H3,(H,17,18)
Instrument: Exploris 240 Orbitrap Thermo Scientific
Instrument type: LC-ESI-QFT
Ms type: MS2
Ion mode: NEGATIVE
Ionization: ESI
Fragmentation mode: HCD
Collision energy: 90 % (nominal)
Resolution: 17500
Column name: XBridge C18 3.5um, 2.1x50mm, Waters
Retention time: 6.307 min
Base peak: 305.1029
Precursor m/z: 305.1031
Precursor type: [M-H]-
m/z	relative intensity	assigned
59.0139	247	C2H3O2-
65.0399	177	C5H5-
79.0553	327	C6H7-
89.0398	278	C7H5-
91.0554	258	C7H7-
93.0347	132	C6H5O-
95.0504	360	C6H7O-
106.0425	225	C7H6O-
107.0504	495	C7H7O-
119.0501	645	C8H7O-
120.0583	301	C8H8O-
121.0659	679	C8H9O-
131.0506	130	C9H7O-
133.0658	297	C9H9O-
134.0373	344	C8H6O2-
135.0455	627	C8H7O2-
147.0453	510	C9H7O2-
148.0534	223	C9H8O2-
149.061	282	C9H9O2-
158.0375	125	C10H6O2-
159.0447	255	C10H7O2-
161.0605	727	C10H9O2-
163.0407	230	C9H7O3-
173.0604	839	C11H9O2-
179.0346	142	C9H7O4-
187.0762	419	C12H11O2-
191.0347	999	C10H7O4-
203.0349	844	C11H7O4-
