Mass spectrum: Prallethrin; LC-ESI-QFT; MS2; CE: 75%; R=15000; [M+H]+
Name: Prallethrin
Name: (2-methyl-4-oxo-3-prop-2-ynylcyclopent-2-en-1-yl) 2,2-dimethyl-3-(2-methylprop-1-enyl)cyclopropane-1-carboxylate
Formula: C19H24O3
Exact mass: 300.1725446
SMILES: CC1=C(C(=O)CC1OC(=O)C2C(C2(C)C)C=C(C)C)CC#C
InChI: InChI=1S/C19H24O3/c1-7-8-13-12(4)16(10-15(13)20)22-18(21)17-14(9-11(2)3)19(17,5)6/h1,9,14,16-17H,8,10H2,2-6H3
Instrument: Exploris 240 Thermo Scientific
Instrument type: LC-ESI-QFT
Ms type: MS2
Ion mode: POSITIVE
Ionization: ESI
Fragmentation mode: HCD
Collision energy: 75 % (nominal)
Resolution: 15000
Column name: XBridge C18 3.5um, 2.1x50mm, Waters
Retention time: 12.520 min
Base peak: 301.1796
Precursor m/z: 301.1798
Precursor type: [M+H]+
m/z	relative intensity	assigned
53.0387	34	C4H5+
55.0178	125	C3H3O+
55.0541	51	C4H7+
57.07	43	C4H9+
59.0491	39	C3H7O+
67.0542	133	C5H7+
69.0698	77	C5H9+
77.0385	365	C6H5+
79.0542	999	C6H7+
81.0698	427	C6H9+
91.0542	45	C7H7+
93.07	18	C7H9+
95.0491	249	C6H7O+
95.0856	86	C7H11+
103.0541	538	C8H7+
105.0698	594	C8H9+
109.0646	23	C7H9O+
121.1011	26	C9H13+
123.1168	108	C9H15+
