Mass spectrum: Butralin; LC-ESI-QFT; MS2; CE: 120%; R=15000; [M+H]+
Name: Butralin
Name: N-butan-2-yl-4-tert-butyl-2,6-dinitroaniline
Formula: C14H21N3O4
Exact mass: 295.1532062
SMILES: CCC(C)NC1=C(C=C(C=C1[N+](=O)[O-])C(C)(C)C)[N+](=O)[O-]
InChI: InChI=1S/C14H21N3O4/c1-6-9(2)15-13-11(16(18)19)7-10(14(3,4)5)8-12(13)17(20)21/h7-9,15H,6H2,1-5H3
Instrument: Exploris 240 Thermo Scientific
Instrument type: LC-ESI-QFT
Ms type: MS2
Ion mode: POSITIVE
Ionization: ESI
Fragmentation mode: HCD
Collision energy: 120 % (nominal)
Resolution: 15000
Column name: XBridge C18 3.5um, 2.1x50mm, Waters
Retention time: 14.802 min
Base peak: 296.1602
Precursor m/z: 296.1605
Precursor type: [M+H]+
m/z	relative intensity	assigned
51.023	52	C4H3+
53.0387	116	C4H5+
57.0697	186	C4H9+
63.023	96	C5H3+
65.0385	158	C5H5+
78.0466	43	C6H6+
79.0542	262	C6H7+
80.0496	52	C5H6N+
81.07	41	C6H9+
89.0386	129	C7H5+
91.0541	202	C7H7+
92.0494	31	C6H6N+
93.0575	63	C6H7N+
95.0492	186	C6H7O+
103.0543	208	C8H7+
104.0494	121	C7H6N+
105.0446	132	C6H5N2+
105.07	68	C8H9+
115.0542	145	C9H7+
116.0494	156	C8H6N+
117.0574	409	C8H7N+
130.0653	168	C9H8N+
132.0807	999	C9H10N+
142.0528	45	C9H6N2+
178.0737	48	C9H10N2O2+
