Mass spectrum: Apremilast; LC-ESI-QFT; MS2; CE: 75%; R=15000; [M-H]-
Name: Apremilast
Name: Apremilast, (+/-)-
Name: N-[2-[(1S)-1-(3-ethoxy-4-methoxy-phenyl)-2-methylsulfonyl-ethyl]-1,3-bis(oxidanylidene)isoindol-4-yl]ethanamide
Formula: C22H24N2O7S
Exact mass: 460.1304221
SMILES: CCOC1=C(C=CC(=C1)C(CS(=O)(=O)C)N2C(=O)C3=C(C2=O)C(=CC=C3)NC(=O)C)OC
InChI: InChI=1S/C22H24N2O7S/c1-5-31-19-11-14(9-10-18(19)30-3)17(12-32(4,28)29)24-21(26)15-7-6-8-16(23-13(2)25)20(15)22(24)27/h6-11,17H,5,12H2,1-4H3,(H,23,25)
Instrument: Q Exactive
Instrument type: LC-ESI-QFT
Ms type: MS2
Ion mode: NEGATIVE
Ionization: ESI
Fragmentation mode: HCD
Collision energy: 75 % (nominal)
Resolution: 15000
Column name: XBridge C18 3.5um, 2.1x50mm, Waters
Retention time: 6.801 min
Base peak: 459.1239
Precursor m/z: 459.1231
Precursor type: [M-H]-
Precursor intensity: 240633702.71
m/z	relative intensity	assigned
63.9624	999	O2S-
77.9783	26	CH2O2S-
78.986	382	CH3O2S-
79.9575	54	O3S-
93.0016	126	C2H5O2S-
117.0461	29	C7H5N2-
118.0296	15	C7H4NO-
132.0214	13	C8H4O2-
132.0457	51	C8H6NO-
147.0451	10	C9H7O2-
149.0244	14	C8H5O3-
160.0405	126	C9H6NO2-
161.0357	838	C8H5N2O2-
183.0567	13	C11H7N2O-
185.0356	13	C4H11NO5S-
187.0151	325	C9H3N2O3-
