Mass spectrum: 2-Hydroxynevirapine; LC-ESI-QFT; MS2; CE: 60%; R=17500; [M+H]+
Name: 2-Hydroxynevirapine
Name: 2-Hydroxy Nevirapine
Name: 2-cyclopropyl-7-methyl-2,4,9,15-tetrazatricyclo[9.4.0.03,8]pentadeca-1(11),3(8),6,12,14-pentaene-5,10-dione
Formula: C15H14N4O2
Exact mass: 282.1116757
SMILES: CC1=CC(=O)NC2=C1NC(=O)C3=C(N2C4CC4)N=CC=C3
InChI: InChI=1S/C15H14N4O2/c1-8-7-11(20)17-14-12(8)18-15(21)10-3-2-6-16-13(10)19(14)9-4-5-9/h2-3,6-7,9H,4-5H2,1H3,(H,17,20)(H,18,21)
Instrument: Exploris 240 Orbitrap Thermo Scientific
Instrument type: LC-ESI-QFT
Ms type: MS2
Ion mode: POSITIVE
Ionization: ESI
Fragmentation mode: HCD
Collision energy: 60 % (nominal)
Resolution: 17500
Column name: XBridge C18 3.5um, 2.1x50mm, Waters
Retention time: 3.847 min
Base peak: 283.1187
Precursor m/z: 283.119
Precursor type: [M+H]+
m/z	relative intensity	assigned
68.0495	88	C4H6N+
80.0494	10	C5H6N+
91.0541	9	C7H7+
95.0604	257	C5H7N2+
96.0442	23	C5H6NO+
96.0681	13	C5H8N2+
108.0808	29	C7H10N+
118.0652	12	C8H8N+
120.0552	16	C6H6N3+
121.0393	36	C6H5N2O+
123.0553	122	C6H7N2O+
124.0632	156	C6H8N2O+
131.0603	29	C8H7N2+
133.0762	70	C8H9N2+
148.0507	16	C7H6N3O+
159.0555	18	C9H7N2O+
160.0632	53	C9H8N2O+
161.071	999	C9H9N2O+
185.0591	10	C12H9O2+
185.0819	15	C10H9N4+
186.0902	21	C10H10N4+
188.0817	7	C10H10N3O+
198.0661	94	C11H8N3O+
200.0824	14	C11H10N3O+
213.0777	70	C11H9N4O+
214.085	571	C11H10N4O+
215.0927	23	C11H11N4O+
223.074	9	C13H9N3O+
225.0779	10	C12H9N4O+
227.0685	10	C12H9N3O2+
227.0934	38	C14H13NO2+
237.1135	18	C14H13N4+
238.0983	26	C14H12N3O+
240.1005	28	C13H12N4O+
242.08	358	C12H10N4O2+
255.1242	40	C14H15N4O+
265.1085	16	C15H13N4O+
283.1192	223	C15H15N4O2+
