Mass spectrum: 6-O-Desmethyl-mycophenolic acid; LC-ESI-QFT; MS2; CE: 180%; R=17500; [M+H]+
Name: 6-O-Desmethyl-mycophenolic acid
Name: 6-(4,6-dihydroxy-7-methyl-3-oxo-1H-2-benzofuran-5-yl)-4-methylhex-4-enoic acid
Formula: C16H18O6
Exact mass: 306.1103383
SMILES: CC1=C2COC(=O)C2=C(C(=C1O)CC=C(C)CCC(=O)O)O
InChI: InChI=1S/C16H18O6/c1-8(4-6-12(17)18)3-5-10-14(19)9(2)11-7-22-16(21)13(11)15(10)20/h3,19-20H,4-7H2,1-2H3,(H,17,18)
Instrument: Exploris 240 Orbitrap Thermo Scientific
Instrument type: LC-ESI-QFT
Ms type: MS2
Ion mode: POSITIVE
Ionization: ESI
Fragmentation mode: HCD
Collision energy: 180 % (nominal)
Resolution: 17500
Column name: XBridge C18 3.5um, 2.1x50mm, Waters
Retention time: 6.296 min
Base peak: 307.1173
Precursor m/z: 307.1176
Precursor type: [M+H]+
m/z	relative intensity	assigned
50.0152	49	C4H2+
51.0229	400	C4H3+
53.0022	170	C3HO+
53.0385	395	C4H5+
55.0177	177	C3H3O+
63.0229	112	C5H3+
65.0385	917	C5H5+
66.0463	106	C5H6+
67.0178	42	C4H3O+
77.0385	928	C6H5+
78.0465	32	C6H6+
79.0542	999	C6H7+
80.0619	47	C6H8+
83.0127	196	C4H3O2+
89.0384	152	C7H5+
90.0463	44	C7H6+
91.0541	221	C7H7+
93.0336	42	C6H5O+
94.0414	103	C6H6O+
95.0491	456	C6H7O+
107.0491	383	C7H7O+
115.0544	54	C9H7+
128.062	48	C10H8+
135.0445	100	C8H7O2+
