Mass spectrum: Siponimod; LC-ESI-QFT; MS2; CE: 70%; R=15000; [M+H]+
Name: Siponimod
Name: 1-[[4-[(E)-N-[[4-cyclohexyl-3-(trifluoromethyl)phenyl]methoxy]-C-methylcarbonimidoyl]-2-ethylphenyl]methyl]azetidine-3-carboxylic acid
Name: 1-[[4-[N-[[4-cyclohexyl-3-(trifluoromethyl)phenyl]methoxy]-C-methylcarbonimidoyl]-2-ethylphenyl]methyl]azetidine-3-carboxylic acid
Formula: C29H35F3N2O3
Exact mass: 516.2599776
SMILES: CCC1=C(C=CC(=C1)C(=NOCC2=CC(=C(C=C2)C3CCCCC3)C(F)(F)F)C)CN4CC(C4)C(=O)O
InChI: InChI=1S/C29H35F3N2O3/c1-3-21-14-23(10-11-24(21)15-34-16-25(17-34)28(35)36)19(2)33-37-18-20-9-12-26(22-7-5-4-6-8-22)27(13-20)29(30,31)32/h9-14,22,25H,3-8,15-18H2,1-2H3,(H,35,36)
Instrument: Exploris 240 Thermo Scientific
Instrument type: LC-ESI-QFT
Ms type: MS2
Ion mode: POSITIVE
Ionization: ESI
Fragmentation mode: HCD
Collision energy: 70 % (nominal)
Resolution: 15000
Column name: XBridge C18 3.5um, 2.1x50mm, Waters
Retention time: 13.993 min
Base peak: 517.267
Precursor m/z: 517.2673
Precursor type: [M+H]+
m/z	relative intensity	assigned
57.0136	11	C3H2F+
59.0292	11	C3H4F+
63.023	35	C5H3+
65.0386	57	C5H5+
75.0229	23	C6H3+
77.0022	26	C5HO+
77.0386	40	C6H5+
78.0465	18	C6H6+
79.0543	27	C6H7+
83.0292	249	C5H4F+
89.0386	116	C7H5+
90.0463	47	C7H6+
91.0542	82	C7H7+
93.0133	10	C6H2F+
95.0491	42	C6H7O+
98.015	15	C8H2+
99.0229	112	C8H3+
103.0542	28	C8H7+
105.0446	22	C6H5N2+
109.0448	999	C7H6F+
115.0542	55	C9H7+
118.0652	20	C8H8N+
119.0291	41	C8H4F+
127.0351	16	C7H5F2+
128.062	11	C10H8+
133.0449	31	C9H6F+
139.0353	27	C8H5F2+
141.0253	16	C6H3F2N2+
147.0354	88	C8H4FN2+
159.0416	71	C8H6F3+
202.0779	151	C16H10+
