Mass spectrum: N-Methylpregabalin; LC-ESI-QFT; MS2; CE: 150%; R=17500; [M+H]+
Name: N-Methylpregabalin
Name: 5-methyl-3-[(methylazaniumyl)methyl]hexanoate
Formula: C9H19NO2
Exact mass: 173.1415788
SMILES: CC(C)CC(CC(=O)O)CNC
InChI: InChI=1S/C9H19NO2/c1-7(2)4-8(6-10-3)5-9(11)12/h7-8,10H,4-6H2,1-3H3,(H,11,12)
Instrument: Exploris 240 Orbitrap Thermo Scientific
Instrument type: LC-ESI-QFT
Ms type: MS2
Ion mode: POSITIVE
Ionization: ESI
Fragmentation mode: HCD
Collision energy: 150 % (nominal)
Resolution: 17500
Column name: XBridge C18 3.5um, 2.1x50mm, Waters
Retention time: 3.329 min
Base peak: 174.1486
Precursor m/z: 174.1489
Precursor type: [M+H]+
m/z	relative intensity	assigned
41.0385	196	C3H5+
43.0179	83	C2H3O+
43.0542	70	C3H7+
44.0495	72	C2H6N+
45.0334	83	C2H5O+
53.0387	68	C4H5+
55.0179	291	C3H3O+
55.0542	999	C4H7+
58.0287	27	C2H4NO+
59.0491	120	C3H7O+
70.0651	132	C4H8N+
82.065	40	C5H8N+
