Mass spectrum: Boscalid; LC-ESI-QFT; MS2; CE: 180%; R=15000; [M+H]+
Name: Boscalid
Name: 2-chloro-N-[2-(4-chlorophenyl)phenyl]pyridine-3-carboxamide
Formula: C18H12Cl2N2O
Exact mass: 342.0326684
SMILES: ClC1=CC=C(C=C1)C1=C(NC(=O)C2=C(Cl)N=CC=C2)C=CC=C1
InChI: InChI=1S/C18H12Cl2N2O/c19-13-9-7-12(8-10-13)14-4-1-2-6-16(14)22-18(23)15-5-3-11-21-17(15)20/h1-11H,(H,22,23)
Instrument: Q Exactive Plus
Instrument type: LC-ESI-QFT
Ms type: MS2
Ion mode: POSITIVE
Ionization: ESI
Fragmentation mode: HCD
Collision energy: 180 % (nominal)
Resolution: 15000
Column name: XBridge C18 3.5um, 2.1x50mm, Waters
Retention time: 9.173 min
Base peak: 343.0403
Precursor m/z: 343.0399
Precursor type: [M+H]+
Precursor intensity: 188620855.64
m/z	relative intensity	assigned
50.0151	878	C4H2+
51.0229	984	C4H3+
52.0182	142	C3H2N+
53.0022	37	C3HO+
60.984	24	C2H2Cl+
61.9792	112	CHClN+
62.015	39	C5H2+
63.0229	139	C5H3+
65.0022	102	C4HO+
66.0101	29	C4H2O+
74.0151	127	C6H2+
75.0103	366	C5HN+
75.0228	93	C6H3+
76.0182	999	C5H2N+
78.0338	263	C5H4N+
84.984	147	C4H2Cl+
86.0152	32	C7H2+
87.0231	67	C7H3+
88.0182	30	C6H2N+
88.0308	30	C7H4+
89.0386	100	C7H5+
95.0493	54	C6H7O+
96.0444	81	C5H6NO+
99.023	68	C8H3+
102.0463	59	C8H6+
113.0386	111	C9H5+
115.0542	58	C9H7+
123.0231	37	C10H3+
125.0388	24	C10H5+
126.0465	107	C10H6+
139.0543	131	C11H7+
140.0496	101	C10H6N+
149.0389	39	C12H5+
150.0465	360	C12H6+
151.0416	23	C11H5N+
162.0467	37	C13H6+
163.0542	201	C13H7+
164.0622	10	C13H8+
169.065	103	C12H9O+
174.0465	88	C14H6+
175.0415	75	C13H5N+
176.0624	35	C14H8+
177.0571	40	C13H7N+
187.0543	305	C15H7+
188.0622	13	C15H8+
190.0656	29	C14H8N+
193.0659	23	C11H12ClN+
194.0607	24	C10H11ClN2+
198.0467	120	C16H6+
200.0622	64	C16H8+
201.0572	29	C15H7N+
212.0495	119	C16H6N+
214.0655	276	C16H8N+
225.057	72	C17H7N+
240.0681	77	C17H8N2+
241.0764	25	C17H9N2+
