Mass spectrum: Losartan-carboxylic acid; LC-ESI-QFT; MS2; CE: 45%; R=17500; [M+H]+
Name: Losartan-carboxylic acid
Name: Losartan carboxylic acid
Name: 2-butyl-5-chloro-3-[[4-[2-(2H-tetrazol-5-yl)phenyl]phenyl]methyl]imidazole-4-carboxylic acid
Formula: C22H21ClN6O2
Exact mass: 436.1414516
SMILES: CCCCC1=NC(=C(N1CC2=CC=C(C=C2)C3=CC=CC=C3C4=NNN=N4)C(=O)O)Cl
InChI: InChI=1S/C22H21ClN6O2/c1-2-3-8-18-24-20(23)19(22(30)31)29(18)13-14-9-11-15(12-10-14)16-6-4-5-7-17(16)21-25-27-28-26-21/h4-7,9-12H,2-3,8,13H2,1H3,(H,30,31)(H,25,26,27,28)
Instrument: Exploris 240 Orbitrap Thermo Scientific
Instrument type: LC-ESI-QFT
Ms type: MS2
Ion mode: POSITIVE
Ionization: ESI
Fragmentation mode: HCD
Collision energy: 45 % (nominal)
Resolution: 17500
Column name: XBridge C18 3.5um, 2.1x50mm, Waters
Retention time: 8.222 min
Base peak: 437.1482
Precursor m/z: 437.1487
Precursor type: [M+H]+
m/z	relative intensity	assigned
80.0494	11	C5H6N+
115.0538	12	C9H7+
129.0446	10	C8H5N2+
140.0497	30	C10H6N+
153.0697	101	C12H9+
163.0547	25	C13H7+
165.0695	5	C13H9+
167.0728	18	C12H9N+
171.0678	4	C11H9NO+
178.0784	139	C14H10+
180.0806	495	C13H10N+
185.0476	31	C8H10ClN2O+
190.0651	439	C14H8N+
191.0726	54	C14H9N+
192.0678	97	C13H8N2+
203.0581	47	C8H12ClN2O2+
205.0764	37	C14H9N2+
206.0837	279	C14H10N2+
207.0916	999	C14H11N2+
235.0979	89	C14H11N4+
