Mass spectrum: Phenyl glucuronide; LC-ESI-QFT; MS2; CE: 60%; R=17500; [M-H]-
Name: Phenyl glucuronide
Name: 3,4,5-trihydroxy-6-phenoxyoxane-2-carboxylic acid
Name: Phenolic glucuronide
Formula: C12H14O7
Exact mass: 270.0739528
SMILES: C1=CC=C(C=C1)OC2C(C(C(C(O2)C(=O)O)O)O)O
InChI: InChI=1S/C12H14O7/c13-7-8(14)10(11(16)17)19-12(9(7)15)18-6-4-2-1-3-5-6/h1-5,7-10,12-15H,(H,16,17)
Instrument: Exploris 240 Orbitrap Thermo Scientific
Instrument type: LC-ESI-QFT
Ms type: MS2
Ion mode: NEGATIVE
Ionization: ESI
Fragmentation mode: HCD
Collision energy: 60 % (nominal)
Resolution: 17500
Column name: XBridge C18 3.5um, 2.1x50mm, Waters
Retention time: 2.934 min
Base peak: 269.0667
Precursor m/z: 269.0667
Precursor type: [M-H]-
m/z	relative intensity	assigned
55.0189	23	C3H3O-
57.0346	59	C3H5O-
59.0139	400	C2H3O2-
67.0189	16	C4H3O-
68.9982	14	C3HO2-
71.0139	227	C3H3O2-
72.9931	33	C2HO3-
73.0296	22	C3H5O2-
75.0088	108	C2H3O3-
83.0137	11	C4H3O2-
85.0295	178	C4H5O2-
87.0088	109	C3H3O3-
89.0245	54	C3H5O3-
93.0346	999	C6H5O-
95.0138	36	C5H3O2-
99.0087	116	C4H3O3-
103.0036	4	C3H3O4-
111.0091	5	C5H3O3-
113.0245	27	C5H5O3-
115.0035	16	C4H3O4-
117.0195	29	C4H5O4-
129.0191	7	C5H5O4-
