Mass spectrum: Methylecgonine; LC-ESI-QFT; MS2; CE: 120%; R=17500; [M+H]+
Name: Methylecgonine
Name: methyl 3-hydroxy-8-methyl-8-azabicyclo[3.2.1]octane-2-carboxylate
Formula: C10H17NO3
Exact mass: 199.1208434
SMILES: CN1C2CCC1C(C(C2)O)C(=O)OC
InChI: InChI=1S/C10H17NO3/c1-11-6-3-4-7(11)9(8(12)5-6)10(13)14-2/h6-9,12H,3-5H2,1-2H3
Instrument: Exploris 240 Orbitrap Thermo Scientific
Instrument type: LC-ESI-QFT
Ms type: MS2
Ion mode: POSITIVE
Ionization: ESI
Fragmentation mode: HCD
Collision energy: 120 % (nominal)
Resolution: 17500
Column name: XBridge C18 3.5um, 2.1x50mm, Waters
Retention time: 0.884 min
Base peak: 200.128
Precursor m/z: 200.1281
Precursor type: [M+H]+
m/z	relative intensity	assigned
53.0386	38	C4H5+
55.0542	33	C4H7+
56.0495	32	C3H6N+
57.0573	74	C3H7N+
59.0128	19	C2H3O2+
65.0385	299	C5H5+
67.0416	89	C4H5N+
67.0542	68	C5H7+
68.0494	335	C4H6N+
69.0335	58	C4H5O+
70.0652	36	C4H8N+
71.0129	32	C3H3O2+
77.0387	50	C6H5+
79.0542	102	C6H7+
80.0496	24	C5H6N+
81.0574	19	C5H7N+
81.0697	27	C6H9+
82.0651	999	C5H8N+
83.0729	174	C5H9N+
84.0808	62	C5H10N+
91.0542	244	C7H7+
93.0337	39	C6H5O+
93.0699	12	C7H9+
94.065	215	C6H8N+
95.0492	13	C6H7O+
96.0807	64	C6H10N+
97.0651	32	C6H9O+
100.0757	22	C5H10NO+
107.0731	15	C7H9N+
108.0808	32	C7H10N+
119.0496	15	C8H7O+
122.0966	16	C8H12N+
