Mass spectrum: 4-Desmethyltrimethoprim; LC-ESI-QFT; MS2; CE: 120%; R=17500; [M+H]+
Name: 4-Desmethyltrimethoprim
Name: 4-((2,4-Diaminopyrimidin-5-yl)methyl)-2,6-dimethoxyphenol
Name: 4-[(2,4-diaminopyrimidin-5-yl)methyl]-2,6-dimethoxyphenol
Formula: C13H16N4O3
Exact mass: 276.1222404
SMILES: COC1=CC(=CC(=C1O)OC)CC2=CN=C(N=C2N)N
InChI: InChI=1S/C13H16N4O3/c1-19-9-4-7(5-10(20-2)11(9)18)3-8-6-16-13(15)17-12(8)14/h4-6,18H,3H2,1-2H3,(H4,14,15,16,17)
Instrument: Exploris 240 Orbitrap Thermo Scientific
Instrument type: LC-ESI-QFT
Ms type: MS2
Ion mode: POSITIVE
Ionization: ESI
Fragmentation mode: HCD
Collision energy: 120 % (nominal)
Resolution: 17500
Column name: XBridge C18 3.5um, 2.1x50mm, Waters
Retention time: 2.197 min
Base peak: 277.1293
Precursor m/z: 277.1295
Precursor type: [M+H]+
m/z	relative intensity	assigned
52.0181	28	C3H2N+
54.0338	237	C3H4N+
60.0557	16	CH6N3+
65.0388	19	C5H5+
68.0369	99	C3H4N2+
69.045	14	C3H5N2+
77.0387	37	C6H5+
78.0464	25	C6H6+
79.0291	28	C4H3N2+
80.0497	12	C5H6N+
81.0447	999	C4H5N2+
83.0479	43	C3H5N3+
91.0542	19	C7H7+
94.0653	30	C6H8N+
95.0494	11	C6H7O+
96.056	9	C4H6N3+
103.0544	33	C8H7+
104.0495	62	C7H6N+
105.0339	11	C7H5O+
105.0448	29	C6H5N2+
106.04	62	C5H4N3+
107.0487	19	C7H7O+
109.0512	35	C4H5N4+
110.0587	104	C4H6N4+
111.0662	14	C4H7N4+
116.0497	32	C8H6N+
119.0605	59	C7H7N2+
121.0762	25	C7H9N2+
123.0443	34	C7H7O2+
123.0665	429	C5H7N4+
124.0744	43	C5H8N4+
128.0496	77	C9H6N+
129.045	30	C8H5N2+
132.0448	23	C8H6NO+
145.0763	32	C9H9N2+
146.0714	66	C8H8N3+
147.0668	87	C7H7N4+
148.0743	181	C7H8N4+
149.0829	31	C7H9N4+
151.0392	23	C8H7O3+
156.0437	17	C8H4N4+
161.0823	31	C8H9N4+
170.0714	47	C10H8N3+
173.0822	29	C9H9N4+
187.0983	62	C10H11N4+
219.0884	38	C10H11N4O2+
231.0886	12	C11H11N4O2+
