Mass spectrum: Febuxostat; LC-ESI-QFT; MS2; CE: 75%; R=15000; [M+H]+
Name: Febuxostat
Name: 2-[3-cyano-4-(2-methylpropoxy)phenyl]-4-methyl-1,3-thiazole-5-carboxylic acid
Formula: C16H16N2O3S
Exact mass: 316.0881634
SMILES: CC1=C(SC(=N1)C2=CC(=C(C=C2)OCC(C)C)C#N)C(=O)O
InChI: InChI=1S/C16H16N2O3S/c1-9(2)8-21-13-5-4-11(6-12(13)7-17)15-18-10(3)14(22-15)16(19)20/h4-6,9H,8H2,1-3H3,(H,19,20)
Instrument: Q Exactive Plus
Instrument type: LC-ESI-QFT
Ms type: MS2
Ion mode: POSITIVE
Ionization: ESI
Fragmentation mode: HCD
Collision energy: 75 % (nominal)
Resolution: 15000
Column name: XBridge C18 3.5um, 2.1x50mm, Waters
Retention time: 11.644 min
Base peak: 317.0954
Precursor m/z: 317.0954
Precursor type: [M+H]+
Precursor intensity: 288937567.42
m/z	relative intensity	assigned
55.0177	15	C3H3O+
57.0698	18	C4H9+
59.9664	49	COS+
61.0106	10	C2H5S+
70.995	383	C3H3S+
72.0028	12	C3H4S+
73.0106	999	C3H5S+
83.0127	35	C4H3O2+
89.0055	11	C3H5OS+
90.0338	23	C6H4N+
98.99	30	C4H3OS+
117.0449	11	C7H5N2+
132.0443	19	C8H6NO+
145.0396	677	C8H5N2O+
162.0006	116	C8H4NOS+
162.037	77	C9H8NS+
163.0498	14	C8H7N2O2+
174.0002	12	C9H4NOS+
189.0478	31	C10H9N2S+
215.0272	47	C11H7N2OS+
217.043	564	C11H9N2OS+
243.0219	12	C12H7N2O2S+
261.0326	231	C12H9N2O3S+
