Mass spectrum: Triazophos; LC-ESI-QFT; MS2; CE: 180%; R=15000; [M+H]+
Name: Triazophos
Name: diethoxy-[(1-phenyl-1,2,4-triazol-3-yl)oxy]-sulfanylidene-lambda5-phosphane
Formula: C12H16N3O3PS
Exact mass: 313.064999
SMILES: CCOP(=S)(OCC)OC1=NN(C=N1)C2=CC=CC=C2
InChI: InChI=1S/C12H16N3O3PS/c1-3-16-19(20,17-4-2)18-12-13-10-15(14-12)11-8-6-5-7-9-11/h5-10H,3-4H2,1-2H3
Instrument: Exploris 240 Thermo Scientific
Instrument type: LC-ESI-QFT
Ms type: MS2
Ion mode: POSITIVE
Ionization: ESI
Fragmentation mode: HCD
Collision energy: 180 % (nominal)
Resolution: 15000
Column name: XBridge C18 3.5um, 2.1x50mm, Waters
Retention time: 9.744 min
Base peak: 314.072
Precursor m/z: 314.0723
Precursor type: [M+H]+
m/z	relative intensity	assigned
50.0151	133	C4H2+
51.0229	650	C4H3+
64.9787	789	H2O2P+
65.0385	999	C5H5+
66.0463	137	C5H6+
77.0386	370	C6H5+
78.9402	259	OPS+
93.0573	212	C6H7N+
95.0492	216	C6H7O+
96.9507	133	H2O2PS+
105.0445	76	C6H5N2+
114.9612	167	H4O3PS+
