Mass spectrum: Thiazopyr; LC-ESI-QFT; MS2; CE: 60%; R=15000; [M+H]+
Name: Thiazopyr
Name: methyl 2-(difluoromethyl)-5-(4,5-dihydro-1,3-thiazol-2-yl)-4-(2-methylpropyl)-6-(trifluoromethyl)pyridine-3-carboxylate
Formula: C16H17F5N2O2S
Exact mass: 396.0930899
SMILES: COC(=O)C1=C(CC(C)C)C(C2=NCCS2)=C(N=C1C(F)F)C(F)(F)F
InChI: InChI=1S/C16H17F5N2O2S/c1-7(2)6-8-9(15(24)25-3)11(13(17)18)23-12(16(19,20)21)10(8)14-22-4-5-26-14/h7,13H,4-6H2,1-3H3
Instrument: Q Exactive Plus
Instrument type: LC-ESI-QFT
Ms type: MS2
Ion mode: POSITIVE
Ionization: ESI
Fragmentation mode: HCD
Collision energy: 60 % (nominal)
Resolution: 15000
Column name: XBridge C18 3.5um, 2.1x50mm, Waters
Retention time: 11.443 min
Base peak: 397.1005
Precursor m/z: 397.1004
Precursor type: [M+H]+
Precursor intensity: 1271256978.97
m/z	relative intensity	assigned
58.9949	33	C2H3S+
61.0106	999	C2H5S+
73.0648	11	C4H9O+
75.0261	32	C3H7S+
76.0214	37	C2H6NS+
129.0696	19	C2H10F5+
154.0652	23	C11H8N+
174.0714	86	C11H9FN+
192.0818	46	C11H11FNO+
201.0818	54	C12H10FN2+
217.0569	36	C9H12FNO2S+
221.0879	50	C9H16FNO2S+
222.0723	205	C12H10F2NO+
223.0678	16	C11H9F2N2O+
229.0765	62	C16H9N2+
234.0597	48	C12H8F2N2O+
235.0128	20	C11H5F2N2S+
244.0271	25	C15H4N2O2+
249.0832	174	C13H11F2N2O+
252.0165	52	C11H6F2N2OS+
253.0004	14	C11H5F2NO2S+
253.0238	37	C11H7F2N2OS+
255.0192	83	C16H3N2O2+
256.0045	44	C11H5F3NOS+
256.058	23	C12H9F3NO2+
265.059	130	C10H9F4N2O2+
267.0396	24	C15H8FN2S+
269.0901	95	C13H12F3N2O+
271.0148	165	C11H6F3N2OS+
271.0682	70	C15H9F2N2O+
272.0225	72	C11H7F3N2OS+
274.0181	10	C11H6F4N2S+
275.0257	607	C11H7F4N2S+
276.0339	361	C11H8F4N2S+
290.9843	56	C10H3F4N2O2S+
291.0209	46	C11H7F4N2OS+
297.0868	56	C14H15F2N2OS+
299.0097	214	C12H6F3N2O2S+
300.0176	415	C12H7F3N2O2S+
303.0211	506	C12H7F4N2OS+
314.0334	25	C13H9F3N2O2S+
315.0408	100	C13H10F3N2O2S+
319.016	469	C12H7F4N2O2S+
335.0471	294	C13H11F4N2O2S+
