Mass spectrum: Lisinopril; LC-ESI-QFT; MS2; CE: 60%; R=15000; [M-H]-
Name: Lisinopril
Name: N2-(1-carboxy-3-phenylpropyl)lysylproline
Name: (2S)-1-[(2S)-6-azanyl-2-[[(2S)-1-oxidanyl-1-oxidanylidene-4-phenyl-butan-2-yl]amino]hexanoyl]pyrrolidine-2-carboxylic acid
Formula: C21H31N3O5
Exact mass: 405.2263711
SMILES: C1CC(N(C1)C(=O)C(CCCCN)NC(CCC2=CC=CC=C2)C(=O)O)C(=O)O
InChI: InChI=1S/C21H31N3O5/c22-13-5-4-9-16(19(25)24-14-6-10-18(24)21(28)29)23-17(20(26)27)12-11-15-7-2-1-3-8-15/h1-3,7-8,16-18,23H,4-6,9-14,22H2,(H,26,27)(H,28,29)
Instrument: Q Exactive
Instrument type: LC-ESI-QFT
Ms type: MS2
Ion mode: NEGATIVE
Ionization: ESI
Fragmentation mode: HCD
Collision energy: 60 % (nominal)
Resolution: 15000
Column name: XBridge C18 3.5um, 2.1x50mm, Waters
Retention time: 3.524 min
Base peak: 404.2192
Precursor m/z: 404.2191
Precursor type: [M-H]-
Precursor intensity: 71452471.68
m/z	relative intensity	assigned
66.0348	15	C4H4N-
91.0554	24	C7H7-
114.056	999	C5H8NO2-
