Mass spectrum: Imidacloprid; LC-ESI-QFT; MS2; CE: 60%; R=15000; [M+H]+
Name: Imidacloprid
Name: N-[1-[(6-chloro-3-pyridinyl)methyl]-4,5-dihydroimidazol-2-yl]nitramide
Name: N-[1-[(6-chloropyridin-3-yl)methyl]-4,5-dihydroimidazol-2-yl]nitramide
Formula: C9H10ClN5O2
Exact mass: 255.0523022
SMILES: [O-][N+](=O)\N=C1/NCCN1CC1=CN=C(Cl)C=C1
InChI: InChI=1S/C9H10ClN5O2/c10-8-2-1-7(5-12-8)6-14-4-3-11-9(14)13-15(16)17/h1-2,5H,3-4,6H2,(H,11,13)
Instrument: Q Exactive Plus
Instrument type: LC-ESI-QFT
Ms type: MS2
Ion mode: POSITIVE
Ionization: ESI
Fragmentation mode: HCD
Collision energy: 60 % (nominal)
Resolution: 15000
Column name: XBridge C18 3.5um, 2.1x50mm, Waters
Retention time: 4.086 min
Base peak: 256.0597
Precursor m/z: 256.0596
Precursor type: [M+H]+
Precursor intensity: 237713302.75
m/z	relative intensity	assigned
56.0495	52	C3H6N+
71.0605	19	C3H7N2+
84.0557	270	C3H6N3+
92.0494	14	C6H6N+
97.0635	11	C4H7N3+
98.0714	17	C4H8N3+
99.0553	36	C4H7N2O+
107.0605	14	C6H7N2+
119.0604	14	C7H7N2+
126.0106	94	C6H5ClN+
127.0184	10	C6H6ClN+
128.0263	153	C6H7ClN+
133.0761	30	C8H9N2+
134.0714	22	C7H8N3+
141.0216	24	C6H6ClN2+
146.059	18	C7H6N4+
146.0714	66	C8H8N3+
147.0667	65	C7H7N4+
148.0868	29	C8H10N3+
158.0712	38	C9H8N3+
159.0665	10	C8H7N4+
159.0792	33	C9H9N3+
167.0376	33	C8H8ClN2+
173.0822	90	C9H9N4+
174.0901	123	C9H10N4+
175.0979	999	C9H11N4+
181.0277	23	C7H6ClN4+
194.0484	11	C9H9ClN3+
209.059	945	C9H10ClN4+
