Mass spectrum: 4-Hydroxypropanolol-sulfate; LC-ESI-QFT; MS2; CE: 30%; R=17500; [M+H]+
Name: 4-Hydroxypropanolol-sulfate
Name: 4-[2-Hydroxy-3-(propan-2-ylamino)propoxy]naphthalen-1-yl hydrogen sulfate
Name: [4-[2-hydroxy-3-(propan-2-ylamino)propoxy]naphthalen-1-yl] hydrogen sulfate
Name: HOPS
Formula: C16H21NO6S
Exact mass: 355.1089584
SMILES: CC(C)NCC(COC1=CC=C(C2=CC=CC=C21)OS(=O)(=O)O)O
InChI: InChI=1S/C16H21NO6S/c1-11(2)17-9-12(18)10-22-15-7-8-16(23-24(19,20)21)14-6-4-3-5-13(14)15/h3-8,11-12,17-18H,9-10H2,1-2H3,(H,19,20,21)
Instrument: Exploris 240 Orbitrap Thermo Scientific
Instrument type: LC-ESI-QFT
Ms type: MS2
Ion mode: POSITIVE
Ionization: ESI
Fragmentation mode: HCD
Collision energy: 30 % (nominal)
Resolution: 17500
Column name: XBridge C18 3.5um, 2.1x50mm, Waters
Retention time: 3.203 min
Base peak: 356.1162
Precursor m/z: 356.1162
Precursor type: [M+H]+
m/z	relative intensity	assigned
56.0494	5	C3H6N+
58.0651	91	C3H8N+
60.0808	10	C3H10N+
72.0808	43	C4H10N+
74.0599	19	C3H8NO+
86.0963	22	C5H12N+
98.0965	44	C6H12N+
116.107	377	C6H14NO+
132.1019	25	C6H14NO2+
145.0647	5	C10H9O+
157.0643	3	C11H9O+
173.0597	23	C11H9O2+
199.0752	49	C13H11O2+
234.1124	13	C13H16NO3+
258.1486	18	C16H20NO2+
276.1594	999	C16H22NO3+
356.1165	346	C16H22NO6S+
