Mass spectrum: 4,4`-Oxydianiline; LC-ESI-QFT; MS2; CE: 150%; R=15000; [M+H]+
Name: 4,4`-Oxydianiline
Name: 4-(4-aminophenoxy)aniline
Formula: C12H12N2O
Exact mass: 200.094963
SMILES: NC1=CC=C(OC2=CC=C(N)C=C2)C=C1
InChI: InChI=1S/C12H12N2O/c13-9-1-5-11(6-2-9)15-12-7-3-10(14)4-8-12/h1-8H,13-14H2
Instrument: Exploris 240 Thermo Scientific
Instrument type: LC-ESI-QFT
Ms type: MS2
Ion mode: POSITIVE
Ionization: ESI
Fragmentation mode: HCD
Collision energy: 150 % (nominal)
Resolution: 15000
Column name: XBridge C18 3.5um, 2.1x50mm, Waters
Retention time: 1.535 min
Base peak: 201.1018
Precursor m/z: 201.1022
Precursor type: [M+H]+
m/z	relative intensity	assigned
50.015	49	C4H2+
51.0229	18	C4H3+
53.0385	369	C4H5+
54.0338	20	C3H4N+
65.0385	89	C5H5+
66.0464	76	C5H6+
76.0306	87	C6H4+
80.0494	999	C5H6N+
89.0383	19	C7H5+
92.0494	23	C6H6N+
93.0573	86	C6H7N+
103.054	32	C8H7+
108.0443	154	C6H6NO+
115.0539	14	C9H7+
127.0541	16	C10H7+
128.0619	80	C10H8+
154.0649	28	C11H8N+
155.0605	12	C10H7N2+
