Mass spectrum: Flumioxazin; LC-ESI-QFT; MS2; CE: 45%; R=15000; [M+H]+
Name: Flumioxazin
Name: 2-(7-fluoro-3-oxo-4-prop-2-ynyl-1,4-benzoxazin-6-yl)-4,5,6,7-tetrahydroisoindole-1,3-dione
Formula: C19H15FN2O4
Exact mass: 354.1015852
SMILES: FC1=CC2=C(C=C1N1C(=O)C3=C(CCCC3)C1=O)N(CC#C)C(=O)CO2
InChI: InChI=1S/C19H15FN2O4/c1-2-7-21-15-9-14(13(20)8-16(15)26-10-17(21)23)22-18(24)11-5-3-4-6-12(11)19(22)25/h1,8-9H,3-7,10H2
Instrument: Q Exactive Plus
Instrument type: LC-ESI-QFT
Ms type: MS2
Ion mode: POSITIVE
Ionization: ESI
Fragmentation mode: HCD
Collision energy: 45 % (nominal)
Resolution: 15000
Column name: XBridge C18 3.5um, 2.1x50mm, Waters
Retention time: 8.237 min
Base peak: 355.1091
Precursor m/z: 355.1089
Precursor type: [M+H]+
Precursor intensity: 108809856.34
m/z	relative intensity	assigned
53.0387	21	C4H5+
55.0178	27	C3H3O+
68.0495	12	C4H6N+
77.0388	18	C6H5+
79.0542	208	C6H7+
81.0334	32	C5H5O+
81.0699	74	C6H9+
95.0492	36	C6H7O+
107.0491	445	C7H7O+
108.0572	19	C7H8O+
121.0448	102	C8H6F+
128.0495	15	C9H6N+
134.06	29	C8H8NO+
135.0438	92	C8H7O2+
148.0556	254	C9H7FN+
149.0397	165	C9H6FO+
149.0637	15	C9H8FN+
150.0348	20	C8H5FNO+
162.035	14	C9H5FNO+
166.0661	23	C9H9FNO+
174.0555	10	C7H9FNO3+
176.0506	493	C10H7FNO+
177.0454	14	C9H6FN2O+
177.0585	79	C10H8FNO+
189.0457	18	C10H6FN2O+
190.0536	102	C10H7FN2O+
191.061	41	C13H7N2+
204.0456	194	C11H7FNO2+
219.0568	58	C11H8FN2O2+
223.0664	22	C14H8FN2+
223.0862	12	C14H11N2O+
229.0774	18	C13H10FN2O+
230.0614	20	C13H9FNO2+
232.0403	45	C12H7FNO3+
237.1018	20	C15H13N2O+
239.0613	24	C14H8FN2O+
253.0772	95	C15H10FN2O+
255.093	13	C15H12FN2O+
257.0721	77	C14H10FN2O2+
258.0561	18	C14H9FNO3+
258.0924	60	C15H13FNO2+
259.0514	113	C13H8FN2O3+
260.0719	124	C14H11FNO3+
266.0842	33	C16H11FN2O+
267.0923	37	C16H12FN2O+
269.0716	37	C15H10FN2O2+
270.0552	11	C15H9FNO3+
271.0522	29	C14H8FN2O3+
271.0876	73	C15H12FN2O2+
274.0874	43	C15H13FNO3+
279.0764	156	C16H11N2O3+
279.1124	35	C17H15N2O2+
285.1042	91	C16H14FN2O2+
286.0874	50	C19H12NO2+
287.0826	243	C15H12FN2O3+
297.1031	39	C17H14FN2O2+
299.0827	999	C16H12FN2O3+
301.0981	56	C16H14FN2O3+
307.1076	89	C18H15N2O3+
313.0982	218	C17H14FN2O3+
316.0857	65	C16H13FN2O4+
327.0769	152	C17H12FN2O4+
327.1141	433	C18H16FN2O3+
355.1088	295	C19H16FN2O4+
