Mass spectrum: Febuxostat; LC-ESI-QFT; MS2; CE: 90%; R=15000; [M+H]+
Name: Febuxostat
Name: 2-[3-cyano-4-(2-methylpropoxy)phenyl]-4-methyl-1,3-thiazole-5-carboxylic acid
Formula: C16H16N2O3S
Exact mass: 316.0881634
SMILES: CC1=C(SC(=N1)C2=CC(=C(C=C2)OCC(C)C)C#N)C(=O)O
InChI: InChI=1S/C16H16N2O3S/c1-9(2)8-21-13-5-4-11(6-12(13)7-17)15-18-10(3)14(22-15)16(19)20/h4-6,9H,8H2,1-3H3,(H,19,20)
Instrument: Q Exactive Plus
Instrument type: LC-ESI-QFT
Ms type: MS2
Ion mode: POSITIVE
Ionization: ESI
Fragmentation mode: HCD
Collision energy: 90 % (nominal)
Resolution: 15000
Column name: XBridge C18 3.5um, 2.1x50mm, Waters
Retention time: 11.644 min
Base peak: 317.0954
Precursor m/z: 317.0954
Precursor type: [M+H]+
Precursor intensity: 288937567.42
m/z	relative intensity	assigned
55.0177	23	C3H3O+
57.0698	22	C4H9+
59.9664	121	COS+
61.0106	17	C2H5S+
70.9949	569	C3H3S+
72.0028	52	C3H4S+
73.0106	814	C3H5S+
83.0127	57	C4H3O2+
90.0338	139	C6H4N+
91.0543	25	C7H7+
98.9898	32	C4H3OS+
104.0494	18	C7H6N+
117.0447	58	C7H5N2+
118.0288	50	C7H4NO+
118.0649	47	C8H8N+
121.0104	22	C7H5S+
128.0496	20	C9H6N+
132.0443	41	C8H6NO+
135.0262	18	C8H7S+
136.0395	12	C7H6NO2+
145.0396	999	C8H5N2O+
155.0599	11	C10H7N2+
160.0215	20	C9H6NS+
162.0007	174	C8H4NOS+
162.0371	101	C9H8NS+
189.048	19	C10H9N2S+
217.043	172	C11H9N2OS+
261.0331	19	C12H9N2O3S+
