Mass spectrum: Flurochloridone; LC-ESI-QFT; MS2; CE: 75%; R=15000; [M+H]+
Name: Flurochloridone
Name: 3-chloro-4-(chloromethyl)-1-[3-(trifluoromethyl)phenyl]pyrrolidin-2-one
Formula: C12H10Cl2F3NO
Exact mass: 311.009154
SMILES: C1C(C(C(=O)N1C2=CC=CC(=C2)C(F)(F)F)Cl)CCl
InChI: InChI=1S/C12H10Cl2F3NO/c13-5-7-6-18(11(19)10(7)14)9-3-1-2-8(4-9)12(15,16)17/h1-4,7,10H,5-6H2
Instrument: Exploris 240 Thermo Scientific
Instrument type: LC-ESI-QFT
Ms type: MS2
Ion mode: POSITIVE
Ionization: ESI
Fragmentation mode: HCD
Collision energy: 75 % (nominal)
Resolution: 15000
Column name: XBridge C18 3.5um, 2.1x50mm, Waters
Retention time: 9.717 min
Base peak: 312.0161
Precursor m/z: 312.0164
Precursor type: [M+H]+
m/z	relative intensity	assigned
51.0229	21	C4H3+
53.0385	999	C4H5+
74.9995	143	C3H4Cl+
86.9996	61	C4H4Cl+
89.0151	191	C4H6Cl+
102.9944	86	C4H4ClO+
127.035	137	C7H5F2+
130.0648	88	C9H8N+
143.073	79	C10H9N+
145.026	121	C7H4F3+
154.0458	55	C8H6F2N+
172.0367	261	C8H5F3N+
174.0526	69	C8H7F3N+
192.0612	124	C11H8F2N+
198.0524	247	C10H7F3N+
211.06	30	C11H8F3N+
212.0676	256	C11H9F3N+
227.0548	30	C11H8F3NO+
228.038	19	C11H9ClF2N+
228.0638	24	C11H9F3NO+
240.0626	49	C12H9F3NO+
256.0334	36	C12H9ClF2NO+
292.0097	82	C12H10Cl2F2NO+
