Mass spectrum: Tribenuron-methyl; LC-ESI-QFT; MS2; CE: 75%; R=15000; [M-H]-
Name: Tribenuron-methyl
Name: methyl 2-[[(4-methoxy-6-methyl-1,3,5-triazin-2-yl)-methylcarbamoyl]sulfamoyl]benzoate
Formula: C15H17N5O6S
Exact mass: 395.0899543
SMILES: CC1=NC(=NC(=N1)OC)N(C)C(=O)NS(=O)(=O)C2=CC=CC=C2C(=O)OC
InChI: InChI=1S/C15H17N5O6S/c1-9-16-13(18-14(17-9)26-4)20(2)15(22)19-27(23,24)11-8-6-5-7-10(11)12(21)25-3/h5-8H,1-4H3,(H,19,22)
Instrument: Exploris 240 Thermo Scientific
Instrument type: LC-ESI-QFT
Ms type: MS2
Ion mode: NEGATIVE
Ionization: ESI
Fragmentation mode: HCD
Collision energy: 75 % (nominal)
Resolution: 15000
Column name: XBridge C18 3.5um, 2.1x50mm, Waters
Retention time: 6.973 min
Base peak: 394.0825
Precursor m/z: 394.0827
Precursor type: [M-H]-
m/z	relative intensity	assigned
55.0301	703	C2H3N2-
65.0145	79	C3HN2-
97.0407	24	C4H5N2O-
123.0311	38	C4H3N4O-
123.0675	25	C5H7N4-
137.0467	29	C5H5N4O-
138.0548	49	C5H6N4O-
139.0623	37	C5H7N4O-
153.0781	999	C6H9N4O-
