Mass spectrum: 1,4-Cyclohexanedicarboxylic acid; LC-ESI-QFT; MS2; CE: 120%; R=15000; [M+H]+
Name: 1,4-Cyclohexanedicarboxylic acid
Name: cyclohexane-1,4-dicarboxylic acid
Formula: C8H12O4
Exact mass: 172.0735589
SMILES: OC(=O)C1CCC(CC1)C(O)=O
InChI: InChI=1S/C8H12O4/c9-7(10)5-1-2-6(4-3-5)8(11)12/h5-6H,1-4H2,(H,9,10)(H,11,12)
Instrument: Exploris 240 Thermo Scientific
Instrument type: LC-ESI-QFT
Ms type: MS2
Ion mode: POSITIVE
Ionization: ESI
Fragmentation mode: HCD
Collision energy: 120 % (nominal)
Resolution: 15000
Column name: XBridge C18 3.5um, 2.1x50mm, Waters
Retention time: 4.208 min
Base peak: 155.0702
Precursor m/z: 173.0808
Precursor type: [M+H]+
m/z	relative intensity	assigned
41.0386	13	C3H5+
43.0178	48	C2H3O+
53.0386	121	C4H5+
55.0544	30	C4H7+
65.0386	20	C5H5+
66.0464	17	C5H6+
67.0541	38	C5H7+
79.0542	459	C6H7+
81.0698	999	C6H9+
