Mass spectrum: Clofibrate; LC-ESI-QFT; MS2; CE: 75%; R=15000; [M+H]+
Name: Clofibrate
Name: ethyl 2-(4-chlorophenoxy)-2-methylpropanoate
Formula: C12H15ClO3
Exact mass: 242.070972
SMILES: CCOC(=O)C(C)(C)OC1=CC=C(Cl)C=C1
InChI: InChI=1S/C12H15ClO3/c1-4-15-11(14)12(2,3)16-10-7-5-9(13)6-8-10/h5-8H,4H2,1-3H3
Instrument: Q Exactive Plus
Instrument type: LC-ESI-QFT
Ms type: MS2
Ion mode: POSITIVE
Ionization: ESI
Fragmentation mode: HCD
Collision energy: 75 % (nominal)
Resolution: 15000
Column name: XBridge C18 3.5um, 2.1x50mm, Waters
Retention time: 11.449 min
Base peak: 243.0784
Precursor m/z: 243.0782
Precursor type: [M+H]+
Precursor intensity: 61114957.02
m/z	relative intensity	assigned
53.0386	16	C4H5+
59.0491	999	C3H7O+
69.0335	21	C4H5O+
87.0441	99	C4H7O2+
87.0805	30	C5H11O+
94.0413	10	C6H6O+
95.0491	44	C6H7O+
105.0699	13	C8H9+
113.0153	56	C6H6Cl+
115.0542	14	C9H7+
116.0619	16	C9H8+
129.0101	67	C6H6ClO+
141.0101	828	C7H6ClO+
144.0568	16	C10H8O+
162.0676	16	C10H10O2+
