Mass spectrum: Clodinafop-propargyl; LC-ESI-QFT; MS2; CE: 75%; R=15000; [M+H]+
Name: Clodinafop-propargyl
Name: 2-(4-((5-Chloro-3-fluoro-2-pyridinyl)oxy)phenoxy)propanoic acid 2-propyn-1-yl ester
Name: prop-2-ynyl 2-[4-(5-chloro-3-fluoropyridin-2-yl)oxyphenoxy]propanoate
Formula: C17H13ClFNO4
Exact mass: 349.0517138
SMILES: CC(C(=O)OCC#C)OC1=CC=C(C=C1)OC2=NC=C(C=C2F)Cl
InChI: InChI=1S/C17H13ClFNO4/c1-3-8-22-17(21)11(2)23-13-4-6-14(7-5-13)24-16-15(19)9-12(18)10-20-16/h1,4-7,9-11H,8H2,2H3
Instrument: Exploris 240 Thermo Scientific
Instrument type: LC-ESI-QFT
Ms type: MS2
Ion mode: POSITIVE
Ionization: ESI
Fragmentation mode: HCD
Collision energy: 75 % (nominal)
Resolution: 15000
Column name: XBridge C18 3.5um, 2.1x50mm, Waters
Retention time: 10.935 min
Base peak: 350.0585
Precursor m/z: 350.059
Precursor type: [M+H]+
m/z	relative intensity	assigned
55.0178	24	C3H3O+
65.0385	129	C5H5+
75.0228	34	C6H3+
77.0386	19	C6H5+
91.054	999	C7H7+
92.0256	41	C6H4O+
92.0618	56	C7H8+
93.0696	16	C7H9+
94.041	14	C6H6O+
102.0463	14	C8H6+
103.0541	31	C8H7+
109.028	23	C6H5O2+
119.0488	43	C8H7O+
120.0568	41	C8H8O+
121.0281	14	C7H5O2+
121.0648	25	C8H9O+
128.0618	14	C10H8+
129.9852	23	C5H2ClFN+
131.0486	35	C9H7O+
147.9955	124	C8HFO2+
158.0395	35	C10H5FN+
159.0474	216	C10H6FN+
167.0057	21	C9H5ClF+
169.0088	14	C8H5ClFN+
176.05	135	C13H6N+
182.0165	24	C12H3FO+
185.0627	18	C12H8FN+
187.0422	94	C11H6FNO+
222.0111	470	C14H3FO2+
238.0062	181	C11H6ClFNO2+
276.0228	19	C14H8ClFNO2+
