Mass spectrum: Indoxacarb; LC-ESI-QFT; MS2; CE: 90%; R=15000; [M+H]+
Name: Indoxacarb
Name: methyl (4aS)-7-chloro-2-[methoxycarbonyl-[4-(trifluoromethoxy)phenyl]carbamoyl]-3,5-dihydroindeno[1,2-e][1,3,4]oxadiazine-4a-carboxylate
Formula: C22H17ClF3N3O7
Exact mass: 527.0707122
SMILES: COC(=O)N(C(=O)N1CO[C@]2(CC3=C(C=CC(Cl)=C3)C2=N1)C(=O)OC)C1=CC=C(OC(F)(F)F)C=C1
InChI: InChI=1S/C22H17ClF3N3O7/c1-33-18(30)21-10-12-9-13(23)3-8-16(12)17(21)27-28(11-35-21)19(31)29(20(32)34-2)14-4-6-15(7-5-14)36-22(24,25)26/h3-9H,10-11H2,1-2H3/t21-/m0/s1
Instrument: Q Exactive Plus
Instrument type: LC-ESI-QFT
Ms type: MS2
Ion mode: POSITIVE
Ionization: ESI
Fragmentation mode: HCD
Collision energy: 90 % (nominal)
Resolution: 15000
Column name: XBridge C18 3.5um, 2.1x50mm, Waters
Retention time: 12.982 min
Base peak: 528.0783
Precursor m/z: 528.078
Precursor type: [M+H]+
Precursor intensity: 66716548.9
m/z	relative intensity	assigned
50.0153	16	C4H2+
51.023	42	C4H3+
53.0386	42	C4H5+
56.0131	501	C2H2NO+
63.023	22	C5H3+
65.0386	11	C5H5+
68.9947	211	CF3+
69.9923	18	C2NO2+
75.0229	58	C6H3+
77.0021	20	C5HO+
77.0385	31	C6H5+
78.0338	133	C5H4N+
83.0292	19	C5H4F+
89.0385	67	C7H5+
90.0338	52	C6H4N+
90.0463	13	C7H6+
93.0572	13	C6H7N+
95.0492	155	C6H7O+
96.0444	60	C5H6NO+
99.023	41	C8H3+
100.0181	21	C7H2N+
102.0465	58	C8H6+
103.0542	17	C8H7+
104.0494	82	C7H6N+
105.0447	37	C6H5N2+
106.0288	623	C6H4NO+
109.0323	10	C6H4FN+
113.0388	72	C9H5+
114.0339	97	C8H4N+
114.0463	10	C4H5FN3+
115.0543	235	C9H7+
116.0496	23	C8H6N+
116.062	74	C9H8+
122.9996	292	C7H4Cl+
123.9949	11	C6H3ClN+
124.0076	35	C7H5Cl+
125.0153	11	C7H6Cl+
126.0339	75	C9H4N+
126.0464	59	C10H6+
127.0417	360	C9H5N+
128.0495	29	C9H6N+
128.062	129	C10H8+
129.0446	22	C8H5N2+
132.0443	46	C8H6NO+
134.0237	999	C7H4NO2+
134.9994	14	C3H3ClFN3+
136.0075	104	C8H5Cl+
140.0496	18	C10H6N+
141.0576	19	C10H7N+
142.0654	38	C10H8N+
144.0445	46	C9H6NO+
145.0647	11	C10H9O+
146.9995	43	C9H4Cl+
147.9948	26	C8H3ClN+
148.0075	14	C4H4ClFN3+
149.0152	182	C9H6Cl+
150.0105	273	C8H5ClN+
152.0023	141	C8H5ClO+
154.0399	119	C9H4N3+
155.0603	52	C10H7N2+
162.0105	200	C9H5ClN+
163.0057	39	C8H4ClN2+
164.0022	32	C4H4ClFN3O+
168.0211	189	C8H7ClNO+
175.0059	14	F3H6O7+
176.0265	29	C5H4F2N3O2+
180.0211	60	C9H7ClNO+
203.0189	220	C8H4F3NO2+
