Mass spectrum: Telmisartan O-acyl-glucuronide; LC-ESI-QFT; MS2; CE: 45%; R=17500; [M-H]-
Name: Telmisartan O-acyl-glucuronide
Name: 3,4,5-trihydroxy-6-[2-[4-[[4-methyl-6-(1-methylbenzimidazol-2-yl)-2-propylbenzimidazol-1-yl]methyl]phenyl]benzoyl]oxyoxane-2-carboxylic acid
Formula: C39H38N4O8
Exact mass: 690.2689642
SMILES: CCCC1=NC2=C(N1CC3=CC=C(C=C3)C4=CC=CC=C4C(=O)OC5C(C(C(C(O5)C(=O)O)O)O)O)C=C(C=C2C)C6=NC7=CC=CC=C7N6C
InChI: InChI=1S/C39H38N4O8/c1-4-9-30-41-31-21(2)18-24(36-40-27-12-7-8-13-28(27)42(36)3)19-29(31)43(30)20-22-14-16-23(17-15-22)25-10-5-6-11-26(25)38(49)51-39-34(46)32(44)33(45)35(50-39)37(47)48/h5-8,10-19,32-35,39,44-46H,4,9,20H2,1-3H3,(H,47,48)
Instrument: Exploris 240 Orbitrap Thermo Scientific
Instrument type: LC-ESI-QFT
Ms type: MS2
Ion mode: NEGATIVE
Ionization: ESI
Fragmentation mode: HCD
Collision energy: 45 % (nominal)
Resolution: 17500
Column name: XBridge C18 3.5um, 2.1x50mm, Waters
Retention time: 6.932 min
Base peak: 689.2621
Precursor m/z: 689.2617
Precursor type: [M-H]-
m/z	relative intensity	assigned
73.0294	5	C3H5O2-
75.0087	30	C2H3O3-
83.0136	5	C4H3O2-
84.0214	2	C4H4O2-
85.0295	197	C4H5O2-
87.0089	24	C3H3O3-
89.0243	22	C3H5O3-
95.0138	59	C5H3O2-
99.0088	58	C4H3O3-
103.0037	25	C3H3O4-
111.0088	5	C5H3O3-
113.0244	138	C5H5O3-
115.0039	21	C4H3O4-
117.0193	25	C4H5O4-
129.0196	15	C5H5O4-
175.0246	11	C6H7O6-
287.1302	999	C18H15N4-
288.1333	19	C12H20N2O6-
301.1461	27	C19H17N4-
302.1531	36	C19H18N4-
303.1614	137	C19H19N4-
315.162	41	C22H21NO-
440.2008	42	C29H28O4-
469.2399	293	C32H29N4-
470.2437	8	C26H34N2O6-
