Mass spectrum: (E)-1-(2-Chloro-1,3-thiazol-5-yl methyl)-3-methyl-2-nitroguanidine; LC-ESI-QFT; MS2; CE: 120%; R=15000; [M+H]+
Name: (E)-1-(2-Chloro-1,3-thiazol-5-yl methyl)-3-methyl-2-nitroguanidine
Name: 1-[(2-chloro-1,3-thiazol-5-yl)methyl]-2-methyl-3-nitroguanidine
Formula: C6H8ClN5O2S
Exact mass: 249.0087232
SMILES: CN\C(NCC1=CN=C(Cl)S1)=N/[N+]([O-])=O
InChI: InChI=1S/C6H8ClN5O2S/c1-8-6(11-12(13)14)10-3-4-2-9-5(7)15-4/h2H,3H2,1H3,(H2,8,10,11)
Instrument: Q Exactive Plus
Instrument type: LC-ESI-QFT
Ms type: MS2
Ion mode: POSITIVE
Ionization: ESI
Fragmentation mode: HCD
Collision energy: 120 % (nominal)
Resolution: 15000
Column name: XBridge C18 3.5um, 2.1x50mm, Waters
Retention time: 4.165 min
Base peak: 250.016
Precursor m/z: 250.016
Precursor type: [M+H]+
Precursor intensity: 221153798.4
m/z	relative intensity	assigned
52.0181	45	C3H2N+
54.0338	650	C3H4N+
55.029	40	C2H3N2+
55.0416	146	C3H5N+
56.0495	88	C3H6N+
57.0447	504	C2H5N2+
57.9871	58	C2H2S+
58.995	257	C2H3S+
59.9664	73	COS+
59.9903	177	CH2NS+
61.9792	120	CHClN+
68.0368	62	C3H4N2+
68.0494	40	C4H6N+
68.9793	60	C3HS+
69.0447	335	C3H5N2+
70.995	892	C3H3S+
71.9902	79	C2H2NS+
78.9403	115	CClS+
81.0445	71	C4H5N2+
82.0525	28	C4H6N2+
83.0479	31	C3H5N3+
83.0604	145	C4H7N2+
83.9903	152	C3H2NS+
86.0059	999	C3H4NS+
87.995	104	C3H3ClN+
95.9902	33	C4H2NS+
96.0556	642	C4H6N3+
97.0397	102	C4H5N2O+
98.0059	100	C4H4NS+
99.0011	47	C3H3N2S+
108.0554	56	C5H6N3+
110.0713	612	C5H8N3+
111.079	161	C5H9N3+
113.0168	406	C4H5N2S+
126.0121	36	C4H4N3S+
131.9669	326	C4H3ClNS+
132.9754	82	C4H4ClNS+
