Mass spectrum: Entacapone; LC-ESI-QFT; MS2; CE: 15%; R=15000; [M+H]+
Name: Entacapone
Name: 2-cyano-3-(3,4-dihydroxy-5-nitrophenyl)-N,N-diethylprop-2-enamide
Name: (E)-2-cyano-N,N-diethyl-3-[3-nitro-4,5-bis(oxidanyl)phenyl]prop-2-enamide
Formula: C14H15N3O5
Exact mass: 305.1011706
SMILES: CCN(CC)C(=O)C(=CC1=CC(=C(C(=C1)O)O)[N+](=O)[O-])C#N
InChI: InChI=1S/C14H15N3O5/c1-3-16(4-2)14(20)10(8-15)5-9-6-11(17(21)22)13(19)12(18)7-9/h5-7,18-19H,3-4H2,1-2H3
Instrument: Q Exactive
Instrument type: LC-ESI-QFT
Ms type: MS2
Ion mode: POSITIVE
Ionization: ESI
Fragmentation mode: HCD
Collision energy: 15 % (nominal)
Resolution: 15000
Column name: XBridge C18 3.5um, 2.1x50mm, Waters
Retention time: 6.195 min
Base peak: 306.1085
Precursor m/z: 306.1084
Precursor type: [M+H]+
Precursor intensity: 547436965.48
m/z	relative intensity	assigned
74.0965	25	C4H12N+
233.0193	98	C10H5N2O5+
306.1084	999	C14H16N3O5+
