Mass spectrum: Chlorprothixene; LC-ESI-QFT; MS2; CE: 45%; R=17500; [M+H]+
Name: Chlorprothixene
Name: 3-(2-chlorothioxanthen-9-ylidene)-N,N-dimethylpropan-1-amine
Formula: C18H18ClNS
Exact mass: 315.084848256
SMILES: CN(C)CCC=C1C2=CC=CC=C2SC3=C1C=C(C=C3)Cl
InChI: InChI=1S/C18H18ClNS/c1-20(2)11-5-7-14-15-6-3-4-8-17(15)21-18-10-9-13(19)12-16(14)18/h3-4,6-10,12H,5,11H2,1-2H3
Instrument: Exploris 240 Orbitrap Thermo Scientific
Instrument type: LC-ESI-QFT
Ms type: MS2
Ion mode: POSITIVE
Ionization: ESI
Fragmentation mode: HCD
Collision energy: 45 % (nominal)
Resolution: 17500
Column name: XBridge C18 3.5um, 2.1x50mm, Waters
Retention time: 10.058 min
Base peak: 316.0919
Precursor m/z: 316.0921
Precursor type: [M+H]+
m/z	relative intensity	assigned
58.0651	173	C3H8N+
70.0651	138	C4H8N+
72.0808	32	C4H10N+
84.0808	234	C5H10N+
85.0886	122	C5H11N+
128.0621	20	C10H8+
162.0233	9	C10H7Cl+
192.9875	7	C10H6ClS+
203.0852	15	C16H11+
210.0494	31	C14H10S+
212.0394	9	C14H9Cl+
221.0419	130	C15H9S+
231.003	697	C13H8ClS+
234.0503	34	C16H10S+
235.0576	258	C16H11S+
236.0655	397	C16H12S+
238.0545	186	C16H11Cl+
245.0185	166	C14H10ClS+
256.0109	57	C15H9ClS+
269.0189	14	C16H10ClS+
271.0343	999	C16H12ClS+
273.05	132	C16H14ClS+
316.0923	301	C18H19ClNS+
