Mass spectrum: Alpelisib; LC-ESI-QFT; MS2; CE: 15%; R=15000; [M+H]+
Name: Alpelisib
Name: (2S)-N1-[4-methyl-5-[2-[1,1,1-tris(fluoranyl)-2-methyl-propan-2-yl]pyridin-4-yl]-1,3-thiazol-2-yl]pyrrolidine-1,2-dicarboxamide
Name: 1-N-[4-methyl-5-[2-(1,1,1-trifluoro-2-methylpropan-2-yl)pyridin-4-yl]-1,3-thiazol-2-yl]pyrrolidine-1,2-dicarboxamide
Formula: C19H22F3N5O2S
Exact mass: 441.1446306
SMILES: CC1=C(SC(=N1)NC(=O)N2CCCC2C(=O)N)C3=CC(=NC=C3)C(C)(C)C(F)(F)F
InChI: InChI=1S/C19H22F3N5O2S/c1-10-14(11-6-7-24-13(9-11)18(2,3)19(20,21)22)30-16(25-10)26-17(29)27-8-4-5-12(27)15(23)28/h6-7,9,12H,4-5,8H2,1-3H3,(H2,23,28)(H,25,26,29)
Instrument: Exploris 240 Thermo Scientific
Instrument type: LC-ESI-QFT
Ms type: MS2
Ion mode: POSITIVE
Ionization: ESI
Fragmentation mode: HCD
Collision energy: 15 % (nominal)
Resolution: 15000
Column name: XBridge C18 3.5um, 2.1x50mm, Waters
Retention time: 7.742 min
Base peak: 442.1515
Precursor m/z: 442.1519
Precursor type: [M+H]+
m/z	relative intensity	assigned
115.0865	524	C5H11N2O+
203.0826	17	C6H13N5OS+
328.0726	284	C14H13F3N3OS+
425.1245	10	C19H20F3N4O2S+
442.1521	999	C19H23F3N5O2S+
