Mass spectrum: Hesperitin; LC-ESI-QFT; MS2; CE: 120%; R=17500; [M-H]-
Name: Hesperitin
Name: 5,7-dihydroxy-2-(3-hydroxy-4-methoxyphenyl)-3,4-dihydro-2H-1-benzopyran-4-one
Name: 5,7-dihydroxy-2-(3-hydroxy-4-methoxyphenyl)-2,3-dihydrochromen-4-one
Formula: C16H14O6
Exact mass: 302.0790382
SMILES: COC1=C(C=C(C=C1)C2CC(=O)C3=C(C=C(C=C3O2)O)O)O
InChI: InChI=1S/C16H14O6/c1-21-13-3-2-8(4-10(13)18)14-7-12(20)16-11(19)5-9(17)6-15(16)22-14/h2-6,14,17-19H,7H2,1H3
Instrument: Exploris 240 Orbitrap Thermo Scientific
Instrument type: LC-ESI-QFT
Ms type: MS2
Ion mode: NEGATIVE
Ionization: ESI
Fragmentation mode: HCD
Collision energy: 120 % (nominal)
Resolution: 17500
Column name: XBridge C18 3.5um, 2.1x50mm, Waters
Retention time: 6.311 min
Base peak: 301.0717
Precursor m/z: 301.0718
Precursor type: [M-H]-
m/z	relative intensity	assigned
57.0347	28	C3H5O-
63.024	294	C5H3-
65.0033	999	C4HO-
80.0268	338	C5H4O-
83.0139	163	C4H3O2-
96.0219	22	C5H4O2-
107.014	51	C6H3O2-
108.0216	225	C6H4O2-
132.0217	46	C8H4O2-
133.0299	103	C8H5O2-
134.0372	137	C8H6O2-
135.0453	193	C8H7O2-
143.0505	38	C10H7O-
145.0298	19	C9H5O2-
