Mass spectrum: PFDoDS; LC-ESI-QFT; MS2; CE: 45%; R=17500; [M-H]-
Name: PFDoDS
Name: 1,1,2,2,3,3,4,4,5,5,6,6,7,7,8,8,9,9,10,10,11,11,12,12,12-Pentacosafluorododecane-1-sulphonic acid
Name: 1,1,2,2,3,3,4,4,5,5,6,6,7,7,8,8,9,9,10,10,11,11,12,12,12-pentacosafluorododecane-1-sulfonic acid
Formula: C12HF25O3S
Exact mass: 699.924720392
SMILES: C(C(C(C(C(C(C(F)(F)S(=O)(=O)O)(F)F)(F)F)(F)F)(F)F)(F)F)(C(C(C(C(C(F)(F)F)(F)F)(F)F)(F)F)(F)F)(F)F
InChI: InChI=1S/C12HF25O3S/c13-1(14,3(17,18)5(21,22)7(25,26)9(29,30)11(33,34)35)2(15,16)4(19,20)6(23,24)8(27,28)10(31,32)12(36,37)41(38,39)40/h(H,38,39,40)
Instrument: Exploris 240 Orbitrap Thermo Scientific
Instrument type: LC-ESI-QFT
Ms type: MS2
Ion mode: NEGATIVE
Ionization: ESI
Fragmentation mode: HCD
Collision energy: 45 % (nominal)
Resolution: 17500
Column name: XBridge C18 3.5um, 2.1x50mm, Waters
Retention time: 13.928 min
Base peak: 698.9172
Precursor m/z: 698.9174
Precursor type: [M-H]-
m/z	relative intensity	assigned
79.9573	552	O3S-
82.9609	50	FO2S-
84.9905	7	CF3O-
98.9557	347	FO3S-
118.9925	52	C2F5-
129.9542	29	CF2O3S-
168.9894	57	C3F7-
179.9505	20	C2F4O3S-
229.9474	41	C3F6O3S-
279.9441	43	C4F8O3S-
379.9376	36	C6F12O3S-
698.9171	999	C12F25O3S-
