Mass spectrum: Prothioconazole; LC-ESI-QFT; MS2; CE: 90%; R=15000; [M-H]-
Name: Prothioconazole
Name: 2-[2-(1-chlorocyclopropyl)-3-(2-chlorophenyl)-2-hydroxypropyl]-1H-1,2,4-triazole-3-thione
Formula: C14H15Cl2N3OS
Exact mass: 343.0312885
SMILES: C1CC1(C(CC2=CC=CC=C2Cl)(CN3C(=S)N=CN3)O)Cl
InChI: InChI=1S/C14H15Cl2N3OS/c15-11-4-2-1-3-10(11)7-14(20,13(16)5-6-13)8-19-12(21)17-9-18-19/h1-4,9,20H,5-8H2,(H,17,18,21)
Instrument: Exploris 240 Thermo Scientific
Instrument type: LC-ESI-QFT
Ms type: MS2
Ion mode: NEGATIVE
Ionization: ESI
Fragmentation mode: HCD
Collision energy: 90 % (nominal)
Resolution: 15000
Column name: XBridge C18 3.5um, 2.1x50mm, Waters
Retention time: 11.780 min
Base peak: 342.0242
Precursor m/z: 342.024
Precursor type: [M-H]-
m/z	relative intensity	assigned
57.9757	999	CNS-
68.0254	310	C2H2N3-
71.9915	36	C2H2NS-
98.9898	96	C2HN3S-
99.9976	385	C2H2N3S-
125.0165	37	C7H6Cl-
