Mass spectrum: Butralin; LC-ESI-QFT; MS2; CE: 150%; R=15000; [M+H]+
Name: Butralin
Name: N-butan-2-yl-4-tert-butyl-2,6-dinitroaniline
Formula: C14H21N3O4
Exact mass: 295.1532062
SMILES: CCC(C)NC1=C(C=C(C=C1[N+](=O)[O-])C(C)(C)C)[N+](=O)[O-]
InChI: InChI=1S/C14H21N3O4/c1-6-9(2)15-13-11(16(18)19)7-10(14(3,4)5)8-12(13)17(20)21/h7-9,15H,6H2,1-5H3
Instrument: Exploris 240 Thermo Scientific
Instrument type: LC-ESI-QFT
Ms type: MS2
Ion mode: POSITIVE
Ionization: ESI
Fragmentation mode: HCD
Collision energy: 150 % (nominal)
Resolution: 15000
Column name: XBridge C18 3.5um, 2.1x50mm, Waters
Retention time: 14.802 min
Base peak: 296.1602
Precursor m/z: 296.1605
Precursor type: [M+H]+
m/z	relative intensity	assigned
51.023	169	C4H3+
52.0183	51	C3H2N+
53.0385	251	C4H5+
57.07	81	C4H9+
63.023	182	C5H3+
65.0386	396	C5H5+
66.0466	82	C5H6+
77.0385	259	C6H5+
79.0542	416	C6H7+
89.0386	440	C7H5+
90.0465	231	C7H6+
91.0542	430	C7H7+
92.0496	93	C6H6N+
95.0491	535	C6H7O+
103.0543	308	C8H7+
104.0497	167	C7H6N+
105.0448	249	C6H5N2+
115.0543	337	C9H7+
117.0574	999	C8H7N+
130.0651	207	C9H8N+
132.0809	254	C9H10N+
