Mass spectrum: Eriodictyol; LC-ESI-QFT; MS2; CE: 120%; R=17500; [M+H]+
Name: Eriodictyol
Name: (+/-)-Eriodictyol
Name: 2-(3,4-dihydroxyphenyl)-5,7-dihydroxy-2,3-dihydrochromen-4-one
Formula: C15H12O6
Exact mass: 288.0633881
SMILES: C1C(OC2=CC(=CC(=C2C1=O)O)O)C3=CC(=C(C=C3)O)O
InChI: InChI=1S/C15H12O6/c16-8-4-11(19)15-12(20)6-13(21-14(15)5-8)7-1-2-9(17)10(18)3-7/h1-5,13,16-19H,6H2
Instrument: Exploris 240 Orbitrap Thermo Scientific
Instrument type: LC-ESI-QFT
Ms type: MS2
Ion mode: POSITIVE
Ionization: ESI
Fragmentation mode: HCD
Collision energy: 120 % (nominal)
Resolution: 17500
Column name: XBridge C18 3.5um, 2.1x50mm, Waters
Retention time: 5.359 min
Base peak: 289.0705
Precursor m/z: 289.0707
Precursor type: [M+H]+
m/z	relative intensity	assigned
51.0229	36	C4H3+
53.0386	47	C4H5+
55.0178	94	C3H3O+
63.0229	153	C5H3+
65.0386	135	C5H5+
67.0178	86	C4H3O+
68.9971	347	C3HO2+
69.0335	235	C4H5O+
77.0386	107	C6H5+
79.0179	54	C5H3O+
79.0543	43	C6H7+
81.0335	17	C5H5O+
83.0129	30	C4H3O2+
89.0386	999	C7H5+
93.0335	23	C6H5O+
95.0491	33	C6H7O+
97.0282	40	C5H5O2+
103.0541	16	C8H7+
107.0493	17	C7H7O+
111.0076	7	C5H3O3+
115.0543	21	C9H7+
117.0333	108	C8H5O+
123.0441	21	C7H7O2+
135.0441	34	C8H7O2+
153.0184	129	C7H5O4+
