Mass spectrum: Cyprodinil-TP-CGA-275535; LC-ESI-QFT; MS2; CE: 40%; R=15000; [M+H]+
Name: Cyprodinil-TP-CGA-275535
Name: 3-[(4-Cyclopropyl-6-methyl-2-pyrimidinyl)amino]phenol
Name: 3-[(4-cyclopropyl-6-methylpyrimidin-2-yl)amino]phenol
Formula: C14H15N3O
Exact mass: 241.1215121
SMILES: CC1=NC(=NC(=C1)C2CC2)NC3=CC=CC(=C3)O
InChI: InChI=1S/C14H15N3O/c1-9-7-13(10-5-6-10)17-14(15-9)16-11-3-2-4-12(18)8-11/h2-4,7-8,10,18H,5-6H2,1H3,(H,15,16,17)
Instrument: Exploris 240 Thermo Scientific
Instrument type: LC-ESI-QFT
Ms type: MS2
Ion mode: POSITIVE
Ionization: ESI
Fragmentation mode: HCD
Collision energy: 40 % (nominal)
Resolution: 15000
Column name: XBridge C18 3.5um, 2.1x50mm, Waters
Retention time: 5.417 min
Base peak: 242.1283
Precursor m/z: 242.1288
Precursor type: [M+H]+
m/z	relative intensity	assigned
65.0385	183	C5H5+
67.0543	115	C5H7+
68.0494	54	C4H6N+
79.0542	167	C6H7+
80.0495	115	C5H6N+
81.0697	113	C6H9+
82.0652	46	C5H8N+
91.0542	301	C7H7+
92.0494	273	C6H6N+
93.0572	668	C6H7N+
94.065	62	C6H8N+
106.0651	339	C7H8N+
108.0444	53	C6H6NO+
108.0807	633	C7H10N+
109.0523	61	C6H7NO+
110.0599	385	C6H8NO+
116.0492	58	C8H6N+
118.0524	263	C7H6N2+
124.0754	50	C7H10NO+
131.06	63	C8H7N2+
132.0683	179	C8H8N2+
133.0759	402	C8H9N2+
135.055	328	C7H7N2O+
148.0869	68	C8H10N3+
151.0869	76	C8H11N2O+
159.0547	82	C9H7N2O+
160.075	102	C10H10NO+
161.0705	59	C9H9N2O+
175.0859	70	C10H11N2O+
200.082	50	C11H10N3O+
210.0783	72	C13H10N2O+
225.1017	56	C14H13N2O+
226.0972	214	C13H12N3O+
242.1286	999	C14H16N3O+
