Mass spectrum: Neopentyl-Glycol-Diglycidyl-Ether; LC-ESI-QFT; MS2; CE: 40%; R=15000; [M+H]+
Name: Neopentyl-Glycol-Diglycidyl-Ether
Name: 2-[[2,2-dimethyl-3-(oxiran-2-ylmethoxy)propoxy]methyl]oxirane
Formula: C11H20O4
Exact mass: 216.1361591
SMILES: CC(C)(COCC1CO1)COCC2CO2
InChI: InChI=1S/C11H20O4/c1-11(2,7-12-3-9-5-14-9)8-13-4-10-6-15-10/h9-10H,3-8H2,1-2H3
Instrument: Exploris 240 Thermo Scientific
Instrument type: LC-ESI-QFT
Ms type: MS2
Ion mode: POSITIVE
Ionization: ESI
Fragmentation mode: HCD
Collision energy: 40 % (nominal)
Resolution: 15000
Column name: XBridge C18 3.5um, 2.1x50mm, Waters
Retention time: 5.479 min
Base peak: 234.1696
Precursor m/z: 217.1434
Precursor type: [M+H]+
m/z	relative intensity	assigned
55.0542	149	C4H7+
57.0335	999	C3H5O+
57.0699	142	C4H9+
59.0491	363	C3H7O+
67.0543	50	C5H7+
69.0698	249	C5H9+
71.049	52	C4H7O+
73.0283	62	C3H5O2+
73.0649	35	C4H9O+
75.044	129	C3H7O2+
85.0649	84	C5H9O+
87.0441	106	C4H7O2+
