Mass spectrum: 5-methyl-1-phenyl-2(1H)-Pyridone; LC-ESI-QFT; MS2; CE: 120%; R=15000; [M+H]+
Name: 5-methyl-1-phenyl-2(1H)-Pyridone
Name: Pirfenidone
Name: 5-methyl-1-phenylpyridin-2-one
Formula: C12H11NO
Exact mass: 185.084064
SMILES: CC1=CN(C(=O)C=C1)C2=CC=CC=C2
InChI: InChI=1S/C12H11NO/c1-10-7-8-12(14)13(9-10)11-5-3-2-4-6-11/h2-9H,1H3
Instrument: Exploris 240 Thermo Scientific
Instrument type: LC-ESI-QFT
Ms type: MS2
Ion mode: POSITIVE
Ionization: ESI
Fragmentation mode: HCD
Collision energy: 120 % (nominal)
Resolution: 15000
Column name: XBridge C18 3.5um, 2.1x50mm, Waters
Retention time: 5.057 min
Base peak: 186.0908
Precursor m/z: 186.0913
Precursor type: [M+H]+
m/z	relative intensity	assigned
51.0228	245	C4H3+
53.0385	64	C4H5+
65.0385	999	C5H5+
77.0385	383	C6H5+
91.0539	32	C7H7+
92.0494	233	C6H6N+
95.0491	172	C6H7O+
104.0492	30	C7H6N+
110.0599	265	C6H8NO+
115.0541	66	C9H7+
116.0617	20	C9H8+
117.0573	10	C8H7N+
167.0729	19	C12H9N+
