Mass spectrum: Cyprodinil-TP-CGA-304076; LC-ESI-QFT; MS2; CE: 20%; R=15000; [M+H]+
Name: Cyprodinil-TP-CGA-304076
Name: 2-Anilino-6-cyclopropyl-4-methylpyrimidine-5-ol
Name: 2-anilino-4-cyclopropyl-6-methylpyrimidin-5-ol
Formula: C14H15N3O
Exact mass: 241.1215121
SMILES: CC1=NC(=NC(=C1O)C2CC2)NC3=CC=CC=C3
InChI: InChI=1S/C14H15N3O/c1-9-13(18)12(10-7-8-10)17-14(15-9)16-11-5-3-2-4-6-11/h2-6,10,18H,7-8H2,1H3,(H,15,16,17)
Instrument: Exploris 240 Thermo Scientific
Instrument type: LC-ESI-QFT
Ms type: MS2
Ion mode: POSITIVE
Ionization: ESI
Fragmentation mode: HCD
Collision energy: 20 % (nominal)
Resolution: 15000
Column name: XBridge C18 3.5um, 2.1x50mm, Waters
Retention time: 6.981 min
Base peak: 242.1283
Precursor m/z: 242.1288
Precursor type: [M+H]+
m/z	relative intensity	assigned
242.1285	999	C14H16N3O+
