Mass spectrum: Pyrimethamine; LC-ESI-QFT; MS2; CE: 120%; R=15000; [M+H]+
Name: Pyrimethamine
Name: 5-(4-chlorophenyl)-6-ethylpyrimidine-2,4-diamine
Formula: C12H13ClN4
Exact mass: 248.0828741
SMILES: CCC1=NC(N)=NC(N)=C1C1=CC=C(Cl)C=C1
InChI: InChI=1S/C12H13ClN4/c1-2-9-10(11(14)17-12(15)16-9)7-3-5-8(13)6-4-7/h3-6H,2H2,1H3,(H4,14,15,16,17)
Instrument: Q Exactive Plus
Instrument type: LC-ESI-QFT
Ms type: MS2
Ion mode: POSITIVE
Ionization: ESI
Fragmentation mode: HCD
Collision energy: 120 % (nominal)
Resolution: 15000
Column name: XBridge C18 3.5um, 2.1x50mm, Waters
Retention time: 5.158 min
Base peak: 249.0903
Precursor m/z: 249.0902
Precursor type: [M+H]+
Precursor intensity: 1238556926.84
m/z	relative intensity	assigned
50.0152	15	C4H2+
51.0229	42	C4H3+
53.0385	14	C4H5+
56.0495	40	C3H6N+
67.029	21	C3H3N2+
68.0244	25	C2H2N3+
75.0229	191	C6H3+
86.9996	48	C4H4Cl+
89.0385	59	C7H5+
90.0465	47	C7H6+
93.0335	10	C3H8ClN+
95.0492	61	C3H10ClN+
102.0464	59	C8H6+
103.0541	37	C8H7+
110.9997	49	C6H4Cl+
114.0339	20	C8H4N+
115.0542	177	C9H7+
116.0495	22	C8H6N+
117.0573	160	C8H7N+
122.9997	82	C7H4Cl+
125.0154	106	C7H6Cl+
125.0388	10	C10H5+
126.0465	81	C10H6+
127.0421	49	C9H5N+
127.0542	163	C10H7+
128.0621	999	C10H8+
129.0572	50	C9H7N+
129.0699	22	C10H9+
130.0651	98	C9H8N+
137.0154	27	C8H6Cl+
139.0058	236	C6H4ClN2+
140.0494	136	C10H6N+
142.0527	45	C9H6N2+
145.0649	164	C7H12ClN+
149.0152	65	C9H6Cl+
150.0106	47	C8H5ClN+
151.0181	15	C8H6ClN+
152.0495	16	C11H6N+
153.0568	62	C11H7N+
154.0525	81	C10H6N2+
154.0651	313	C11H8N+
155.0604	471	C10H7N2+
155.0725	24	C11H9N+
156.0681	509	C10H8N2+
161.0027	307	C9H4ClN+
162.0105	40	C9H5ClN+
164.0262	66	C9H7ClN+
165.0217	21	C8H6ClN2+
169.076	36	C11H9N2+
174.0105	149	C10H5ClN+
177.0213	134	C9H6ClN2+
179.0603	56	C12H7N2+
180.056	35	C11H6N3+
181.0634	179	C11H7N3+
189.0212	204	C10H6ClN2+
190.0417	62	C11H9ClN+
191.0368	26	C10H8ClN2+
197.0827	24	C11H9N4+
198.09	528	C11H10N4+
216.0327	57	C11H7ClN3+
233.0587	81	C11H10ClN4+
