Mass spectrum: Benoxacor; LC-ESI-QFT; MS2; CE: 120%; R=15000; [M+H]+
Name: Benoxacor
Name: 2,2-dichloro-1-(3-methyl-2,3-dihydro-1,4-benzoxazin-4-yl)ethanone
Formula: C11H11Cl2NO2
Exact mass: 259.016684
SMILES: CC1COC2=CC=CC=C2N1C(=O)C(Cl)Cl
InChI: InChI=1S/C11H11Cl2NO2/c1-7-6-16-9-5-3-2-4-8(9)14(7)11(15)10(12)13/h2-5,7,10H,6H2,1H3
Instrument: Exploris 240 Thermo Scientific
Instrument type: LC-ESI-QFT
Ms type: MS2
Ion mode: POSITIVE
Ionization: ESI
Fragmentation mode: HCD
Collision energy: 120 % (nominal)
Resolution: 15000
Column name: XBridge C18 3.5um, 2.1x50mm, Waters
Retention time: 8.025 min
Base peak: 260.0237
Precursor m/z: 260.024
Precursor type: [M+H]+
m/z	relative intensity	assigned
53.0386	76	C4H5+
65.0386	589	C5H5+
78.0464	36	C6H6+
79.0542	217	C6H7+
80.0495	475	C5H6N+
81.0574	22	C5H7N+
82.945	700	CHCl2+
92.0496	172	C6H6N+
93.0335	141	C6H5O+
95.0491	180	C6H7O+
104.0496	152	C7H6N+
106.0651	483	C7H8N+
108.0445	98	C6H6NO+
109.0522	288	C6H7NO+
111.044	159	C6H7O2+
115.0543	93	C9H7+
117.0574	154	C8H7N+
120.0444	999	C7H6NO+
134.0601	524	C8H8NO+
