Mass spectrum: Nimesulide; LC-ESI-QFT; MS2; CE: 45%; R=17500; [M-H]-
Name: Nimesulide
Name: N-(4-nitro-2-phenoxyphenyl)methanesulfonamide
Formula: C13H12N2O5S
Exact mass: 308.046692484
SMILES: CS(=O)(=O)NC1=C(C=C(C=C1)[N+](=O)[O-])OC2=CC=CC=C2
InChI: InChI=1S/C13H12N2O5S/c1-21(18,19)14-12-8-7-10(15(16)17)9-13(12)20-11-5-3-2-4-6-11/h2-9,14H,1H3
Instrument: Exploris 240 Orbitrap Thermo Scientific
Instrument type: LC-ESI-QFT
Ms type: MS2
Ion mode: NEGATIVE
Ionization: ESI
Fragmentation mode: HCD
Collision energy: 45 % (nominal)
Resolution: 17500
Column name: XBridge C18 3.5um, 2.1x50mm, Waters
Retention time: 7.689 min
Base peak: 307.0393
Precursor m/z: 307.0394
Precursor type: [M-H]-
m/z	relative intensity	assigned
63.9624	53	O2S-
78.9859	306	CH3O2S-
122.0251	25	C6H4NO2-
142.0668	5	C10H8N-
170.0609	8	C11H8NO-
198.0559	178	C12H8NO2-
199.0639	20	C12H9NO2-
227.0461	59	C12H7N2O3-
228.054	370	C12H8N2O3-
229.0618	999	C12H9N2O3-
