Mass spectrum: Nevirapine; LC-ESI-QFT; MS2; CE: 120%; R=17500; [M+H]+
Name: Nevirapine
Name: 2-cyclopropyl-7-methyl-2,4,9,15-tetrazatricyclo[9.4.0.03,8]pentadeca-1(11),3,5,7,12,14-hexaen-10-one
Formula: C15H14N4O
Exact mass: 266.1167611
SMILES: CC1=C2C(=NC=C1)N(C3=C(C=CC=N3)C(=O)N2)C4CC4
InChI: InChI=1S/C15H14N4O/c1-9-6-8-17-14-12(9)18-15(20)11-3-2-7-16-13(11)19(14)10-4-5-10/h2-3,6-8,10H,4-5H2,1H3,(H,18,20)
Instrument: Exploris 240 Orbitrap Thermo Scientific
Instrument type: LC-ESI-QFT
Ms type: MS2
Ion mode: POSITIVE
Ionization: ESI
Fragmentation mode: HCD
Collision energy: 120 % (nominal)
Resolution: 17500
Column name: XBridge C18 3.5um, 2.1x50mm, Waters
Retention time: 4.746 min
Base peak: 267.1236
Precursor m/z: 267.124
Precursor type: [M+H]+
m/z	relative intensity	assigned
51.0229	134	C4H3+
52.0308	61	C4H4+
53.0386	909	C4H5+
63.0229	25	C5H3+
65.0386	109	C5H5+
66.0339	62	C4H4N+
67.0416	141	C4H5N+
68.0495	67	C4H6N+
77.0389	50	C6H5+
78.0338	582	C5H4N+
79.0416	221	C5H5N+
80.0494	999	C5H6N+
90.0342	75	C6H4N+
92.0368	127	C5H4N2+
92.0496	70	C6H6N+
93.0447	295	C5H5N2+
94.0527	54	C5H6N2+
96.0445	157	C5H6NO+
104.0494	56	C7H6N+
105.0449	258	C6H5N2+
107.0605	246	C6H7N2+
116.05	55	C8H6N+
117.0448	117	C7H5N2+
117.0572	34	C8H7N+
121.04	65	C6H5N2O+
131.0602	177	C8H7N2+
143.0602	93	C9H7N2+
155.0605	148	C10H7N2+
157.0634	70	C9H7N3+
158.0714	96	C9H8N3+
168.0557	66	C10H6N3+
170.0715	431	C10H8N3+
171.0797	116	C10H9N3+
197.0822	556	C11H9N4+
198.0664	137	C11H8N3O+
198.0897	73	C11H10N4+
225.0773	87	C12H9N4O+
227.093	41	C12H11N4O+
251.0926	38	C14H11N4O+
