Mass spectrum: Dimethenamid; LC-ESI-QFT; MS2; CE: 90%; R=15000; [M+H]+
Name: Dimethenamid
Name: 2-chloro-N-(2,4-dimethylthiophen-3-yl)-N-(1-methoxypropan-2-yl)acetamide
Formula: C12H18ClNO2S
Exact mass: 275.0746775
SMILES: COCC(C)N(C(=O)CCl)C1=C(C)SC=C1C
InChI: InChI=1S/C12H18ClNO2S/c1-8-7-17-10(3)12(8)14(11(15)5-13)9(2)6-16-4/h7,9H,5-6H2,1-4H3
Instrument: Q Exactive Plus
Instrument type: LC-ESI-QFT
Ms type: MS2
Ion mode: POSITIVE
Ionization: ESI
Fragmentation mode: HCD
Collision energy: 90 % (nominal)
Resolution: 15000
Column name: XBridge C18 3.5um, 2.1x50mm, Waters
Retention time: 8.898 min
Base peak: 276.0821
Precursor m/z: 276.082
Precursor type: [M+H]+
Precursor intensity: 856186615
m/z	relative intensity	assigned
53.0386	41	C4H5+
55.0542	21	C4H7+
56.0494	30	C3H6N+
58.995	117	C2H3S+
59.9901	12	CH2NS+
65.0387	77	C5H5+
67.0543	167	C5H7+
70.995	39	C3H3S+
73.0646	39	C4H9O+
76.9788	74	C2H2ClO+
77.0385	21	C6H5+
78.0464	56	C6H6+
79.0543	83	C6H7+
80.0495	38	C5H6N+
82.0652	44	C5H8N+
85.0106	32	C4H5S+
91.0542	78	C7H7+
93.0575	68	C6H7N+
93.0699	58	C7H9+
94.0652	222	C6H8N+
95.0491	121	C6H7O+
95.073	263	C6H9N+
97.0107	93	C5H5S+
99.0264	104	C5H7S+
101.0418	29	C5H9S+
104.0494	39	C7H6N+
105.0574	85	C7H7N+
106.0653	28	C7H8N+
108.0809	66	C7H10N+
110.0183	25	C6H6S+
111.0264	999	C6H7S+
112.0213	25	C5H6NS+
112.0341	105	C6H8S+
113.0291	22	C5H7NS+
113.0418	63	C6H9S+
115.0543	13	C9H7+
117.0572	45	C8H7N+
118.0653	59	C8H8N+
119.0731	77	C8H9N+
120.0808	184	C8H10N+
122.0965	13	C8H12N+
123.0261	34	C7H7S+
124.0215	54	C6H6NS+
124.0343	49	C7H8S+
125.0294	50	C6H7NS+
125.042	108	C7H9S+
126.0373	776	C6H8NS+
127.0449	52	C6H9NS+
128.0528	120	C6H10NS+
134.0966	76	C9H12N+
135.0261	31	C8H7S+
135.1044	62	C9H13N+
136.0215	80	C7H6NS+
137.0295	99	C7H7NS+
138.0007	33	C6H4NOS+
138.0373	319	C7H8NS+
140.0528	31	C7H10NS+
150.0375	120	C8H8NS+
151.0576	28	C9H11S+
152.0165	246	C7H6NOS+
152.053	267	C8H10NS+
153.0244	73	C7H7NOS+
153.0605	58	C8H11NS+
154.0319	31	C7H8NOS+
166.0318	28	C8H8NOS+
166.0686	19	C9H12NS+
168.0842	68	C9H14NS+
