Mass spectrum: 3-Hydroxycotinine; LC-ESI-QFT; MS2; CE: 75%; R=17500; [M+H]+
Name: 3-Hydroxycotinine
Name: 2-Pyrrolidinone, 3-hydroxy-1-methyl-5-(3-pyridinyl)-
Name: 3-hydroxy-1-methyl-5-pyridin-3-ylpyrrolidin-2-one
Formula: C10H12N2O2
Exact mass: 192.0898776
SMILES: CN1C(CC(C1=O)O)C2=CN=CC=C2
InChI: InChI=1S/C10H12N2O2/c1-12-8(5-9(13)10(12)14)7-3-2-4-11-6-7/h2-4,6,8-9,13H,5H2,1H3
Instrument: Exploris 240 Orbitrap Thermo Scientific
Instrument type: LC-ESI-QFT
Ms type: MS2
Ion mode: POSITIVE
Ionization: ESI
Fragmentation mode: HCD
Collision energy: 75 % (nominal)
Resolution: 17500
Column name: XBridge C18 3.5um, 2.1x50mm, Waters
Retention time: 0.962 min
Base peak: 193.0971
Precursor m/z: 193.0972
Precursor type: [M+H]+
m/z	relative intensity	assigned
58.0651	116	C3H8N+
79.0543	6	C6H7+
80.0495	999	C5H6N+
86.0601	109	C4H8NO+
92.0494	4	C6H6N+
93.0574	8	C6H7N+
94.0651	12	C6H8N+
96.0442	7	C5H6NO+
106.0651	69	C7H8N+
108.0444	25	C6H6NO+
114.055	31	C5H8NO2+
116.0495	11	C8H6N+
118.0652	41	C8H8N+
121.076	5	C7H9N2+
123.0916	5	C7H11N2+
133.0758	10	C8H9N2+
134.0601	228	C8H8NO+
136.0391	26	C7H6NO2+
136.0753	19	C8H10NO+
146.06	10	C9H8NO+
147.0917	6	C9H11N2+
149.0712	47	C8H9N2O+
193.0974	113	C10H13N2O2+
