Mass spectrum: Meropenem; LC-ESI-QFT; MS2; CE: 30%; R=15000; [M+H]+
Name: Meropenem
Name: 3-[5-(dimethylcarbamoyl)pyrrolidin-3-yl]sulfanyl-6-(1-hydroxyethyl)-4-methyl-7-oxo-1-azabicyclo[3.2.0]hept-2-ene-2-carboxylic acid
Formula: C17H25N3O5S
Exact mass: 383.1514919
SMILES: CC1C2C(C(=O)N2C(=C1SC3CC(NC3)C(=O)N(C)C)C(=O)O)C(C)O
InChI: InChI=1S/C17H25N3O5S/c1-7-12-11(8(2)21)16(23)20(12)13(17(24)25)14(7)26-9-5-10(18-6-9)15(22)19(3)4/h7-12,18,21H,5-6H2,1-4H3,(H,24,25)
Instrument: Exploris 240 Thermo Scientific
Instrument type: LC-ESI-QFT
Ms type: MS2
Ion mode: POSITIVE
Ionization: ESI
Fragmentation mode: HCD
Collision energy: 30 % (nominal)
Resolution: 15000
Column name: XBridge C18 3.5um, 2.1x50mm, Waters
Retention time: 2.456 min
Base peak: 384.1589
Precursor m/z: 384.1588
Precursor type: [M+H]+
m/z	relative intensity	assigned
68.0495	999	C4H6N+
82.0652	30	C5H8N+
100.0215	106	C4H6NS+
101.0708	108	C4H9N2O+
114.0372	498	C5H8NS+
122.0962	37	C8H12N+
124.0756	41	C7H10NO+
126.0913	83	C7H12NO+
141.1021	938	C7H13N2O+
143.1178	249	C7H15N2O+
152.107	89	C9H14NO+
156.0476	25	C7H10NOS+
158.0272	39	C6H8NO2S+
164.053	68	C9H10NS+
170.1174	40	C9H16NO2+
171.0585	199	C7H11N2OS+
173.074	203	C7H13N2OS+
175.0895	29	C7H15N2OS+
181.0794	258	C9H13N2S+
200.0739	98	C9H14NO2S+
254.1321	506	C12H20N3OS+
298.122	106	C13H20N3O3S+
340.1685	31	C16H26N3O3S+
