Mass spectrum: Butyl 2-ethylhexyl phthalate; LC-ESI-QFT; MS2; CE: 60%; R=15000; [M+H]+
Name: Butyl 2-ethylhexyl phthalate
Name: 1-O-butyl 2-O-(2-ethylhexyl) benzene-1,2-dicarboxylate
Formula: C20H30O4
Exact mass: 334.2144094
SMILES: CCCCOC(=O)C1=CC=CC=C1C(=O)OCC(CC)CCCC
InChI: InChI=1S/C20H30O4/c1-4-7-11-16(6-3)15-24-20(22)18-13-10-9-12-17(18)19(21)23-14-8-5-2/h9-10,12-13,16H,4-8,11,14-15H2,1-3H3
Instrument: Exploris 240 Thermo Scientific
Instrument type: LC-ESI-QFT
Ms type: MS2
Ion mode: POSITIVE
Ionization: ESI
Fragmentation mode: HCD
Collision energy: 60 % (nominal)
Resolution: 15000
Column name: XBridge C18 3.5um, 2.1x50mm, Waters
Retention time: 16.006 min
Base peak: 335.2215
Precursor m/z: 335.2217
Precursor type: [M+H]+
m/z	relative intensity	assigned
57.0699	94	C4H9+
71.0855	41	C5H11+
121.0285	43	C7H5O2+
149.0232	999	C8H5O3+
163.0386	10	C9H7O3+
202.0778	87	C16H10+
