Mass spectrum: Diosmin; LC-ESI-QFT; MS2; CE: 75%; R=15000; [M-H]-
Name: Diosmin
Name: Diosmetin-7-O-rutinoside
Name: 2-(4-methoxy-3-oxidanyl-phenyl)-7-[(2S,3R,4S,5S,6R)-6-[[(2R,3R,4R,5R,6S)-6-methyl-3,4,5-tris(oxidanyl)oxan-2-yl]oxymethyl]-3,4,5-tris(oxidanyl)oxan-2-yl]oxy-5-oxidanyl-chromen-4-one
Formula: C28H32O15
Exact mass: 608.1741203
SMILES: CC1C(C(C(C(O1)OCC2C(C(C(C(O2)OC3=CC(=C4C(=C3)OC(=CC4=O)C5=CC(=C(C=C5)OC)O)O)O)O)O)O)O)O
InChI: InChI=1S/C28H32O15/c1-10-21(32)23(34)25(36)27(40-10)39-9-19-22(33)24(35)26(37)28(43-19)41-12-6-14(30)20-15(31)8-17(42-18(20)7-12)11-3-4-16(38-2)13(29)5-11/h3-8,10,19,21-30,32-37H,9H2,1-2H3
Instrument: Q Exactive
Instrument type: LC-ESI-QFT
Ms type: MS2
Ion mode: NEGATIVE
Ionization: ESI
Fragmentation mode: HCD
Collision energy: 75 % (nominal)
Resolution: 15000
Column name: XBridge C18 3.5um, 2.1x50mm, Waters
Retention time: 5.105 min
Base peak: 607.167
Precursor m/z: 607.1668
Precursor type: [M-H]-
Precursor intensity: 119824329.38
m/z	relative intensity	assigned
63.0239	113	C5H3-
65.0031	57	C4HO-
83.0138	84	C4H3O2-
107.0138	169	C6H3O2-
132.0215	13	C8H4O2-
133.0294	60	C8H5O2-
134.0373	76	C8H6O2-
148.0166	35	C8H4O3-
151.0035	173	C7H3O4-
169.0142	30	C7H5O5-
183.0451	45	C12H7O2-
184.053	13	C12H8O2-
187.0401	31	C11H7O3-
188.0479	13	C11H8O3-
199.0404	36	C12H7O3-
200.048	42	C12H8O3-
211.0401	69	C13H7O3-
227.0349	167	C13H7O4-
239.0348	26	C14H7O4-
255.0297	121	C14H7O5-
256.0376	191	C14H8O5-
283.0246	44	C15H7O6-
284.0325	999	C15H8O6-
