Mass spectrum: O-Desarylranolazine; LC-ESI-QFT; MS2; CE: 30%; R=17500; [M+H]+
Name: O-Desarylranolazine
Name: 2-[4-(2,3-dihydroxypropyl)piperazin-1-yl]-N-(2,6-dimethylphenyl)acetamide
Formula: C17H27N3O3
Exact mass: 321.2052417
SMILES: CC1=C(C(=CC=C1)C)NC(=O)CN2CCN(CC2)CC(CO)O
InChI: InChI=1S/C17H27N3O3/c1-13-4-3-5-14(2)17(13)18-16(23)11-20-8-6-19(7-9-20)10-15(22)12-21/h3-5,15,21-22H,6-12H2,1-2H3,(H,18,23)
Instrument: Exploris 240 Orbitrap Thermo Scientific
Instrument type: LC-ESI-QFT
Ms type: MS2
Ion mode: POSITIVE
Ionization: ESI
Fragmentation mode: HCD
Collision energy: 30 % (nominal)
Resolution: 17500
Column name: XBridge C18 3.5um, 2.1x50mm, Waters
Retention time: 3.177 min
Base peak: 322.212
Precursor m/z: 322.2125
Precursor type: [M+H]+
m/z	relative intensity	assigned
98.0838	5	C5H10N2+
113.1071	2	C6H13N2+
118.0859	2	C5H12NO2+
143.1178	160	C7H15N2O+
173.1284	255	C8H17N2O2+
322.2124	999	C17H28N3O3+
