Mass spectrum: Bicalutamide; LC-ESI-QFT; MS2; CE: 120%; R=15000; [M-H]-
Name: Bicalutamide
Name: N-[4-cyano-3-(trifluoromethyl)phenyl]-3-(4-fluorophenyl)sulfonyl-2-hydroxy-2-methylpropanamide
Formula: C18H14F4N2O4S
Exact mass: 430.0610408
SMILES: CC(O)(CS(=O)(=O)C1=CC=C(F)C=C1)C(=O)NC1=CC(=C(C=C1)C#N)C(F)(F)F
InChI: InChI=1S/C18H14F4N2O4S/c1-17(26,10-29(27,28)14-6-3-12(19)4-7-14)16(25)24-13-5-2-11(9-23)15(8-13)18(20,21)22/h2-8,26H,10H2,1H3,(H,24,25)
Instrument: Q Exactive Plus
Instrument type: LC-ESI-QFT
Ms type: MS2
Ion mode: NEGATIVE
Ionization: ESI
Fragmentation mode: HCD
Collision energy: 120 % (nominal)
Resolution: 15000
Column name: XBridge C18 3.5um, 2.1x50mm, Waters
Retention time: 8.393 min
Base peak: 429.0536
Precursor m/z: 429.0538
Precursor type: [M-H]-
Precursor intensity: 221455573.12
m/z	relative intensity	assigned
50.0034	26	C3N-
63.9624	999	O2S-
68.9958	56	CF3-
74.0036	94	C5N-
78.9859	135	CH3O2S-
88.0193	25	C6H2N-
89.0146	14	C5HN2-
95.0304	19	C6H4F-
98.0036	215	C7N-
111.0256	15	C6H4FO-
115.0303	196	C7H3N2-
118.01	154	C7HFN-
125.0145	73	C8HN2-
130.0173	41	C7H2N2O-
138.016	58	C7H2F2N-
145.0207	121	C8H2FN2-
158.0223	109	C7H3F3N-
165.0274	16	C8H3F2N2-
185.0331	341	C5H9F2NO2S-
