Mass spectrum: Triticonazole; LC-ESI-QFT; MS2; CE: 60%; R=15000; [M+H]+
Name: Triticonazole
Name: 5-[(4-chlorophenyl)methylidene]-2,2-dimethyl-1-(1,2,4-triazol-1-ylmethyl)cyclopentan-1-ol
Formula: C17H20ClN3O
Exact mass: 317.1294899
SMILES: CC1(C)CCC(=CC2=CC=C(Cl)C=C2)C1(O)CN1C=NC=N1
InChI: InChI=1S/C17H20ClN3O/c1-16(2)8-7-14(9-13-3-5-15(18)6-4-13)17(16,22)10-21-12-19-11-20-21/h3-6,9,11-12,22H,7-8,10H2,1-2H3
Instrument: Q Exactive Plus
Instrument type: LC-ESI-QFT
Ms type: MS2
Ion mode: POSITIVE
Ionization: ESI
Fragmentation mode: HCD
Collision energy: 60 % (nominal)
Resolution: 15000
Column name: XBridge C18 3.5um, 2.1x50mm, Waters
Retention time: 10.349 min
Base peak: 318.1371
Precursor m/z: 318.1368
Precursor type: [M+H]+
Precursor intensity: 794243410.97
m/z	relative intensity	assigned
59.0491	14	C3H7O+
70.04	999	C2H4N3+
125.0153	64	C7H6Cl+
