Mass spectrum: Chlorpyrifos-methyl; LC-ESI-QFT; MS2; CE: 90%; R=15000; [M+H]+
Name: Chlorpyrifos-methyl
Name: dimethoxy-sulfanylidene-(3,5,6-trichloropyridin-2-yl)oxy-lambda5-phosphane
Formula: C7H7Cl3NO3PS
Exact mass: 320.8949838
SMILES: COP(=S)(OC)OC1=NC(Cl)=C(Cl)C=C1Cl
InChI: InChI=1S/C7H7Cl3NO3PS/c1-12-15(16,13-2)14-7-5(9)3-4(8)6(10)11-7/h3H,1-2H3
Instrument: Q Exactive Plus
Instrument type: LC-ESI-QFT
Ms type: MS2
Ion mode: POSITIVE
Ionization: ESI
Fragmentation mode: HCD
Collision energy: 90 % (nominal)
Resolution: 15000
Column name: XBridge C18 3.5um, 2.1x50mm, Waters
Retention time: 12.587 min
Base peak: 321.9024
Precursor m/z: 321.9023
Precursor type: [M+H]+
Precursor intensity: 36988659.53
m/z	relative intensity	assigned
59.9664	51	COS+
62.0184	129	C2H6S+
62.9994	26	CH4OP+
78.9943	999	CH4O2P+
93.01	65	C2H6O2P+
97.0049	38	CH6O3P+
118.9448	24	C3HClOP+
124.9821	14	C2H6O2PS+
127.0155	65	C3H8ClO3+
142.9927	319	C2H8O3PS+
161.9509	36	C5H2Cl2NO+
167.9169	63	C4HCl3N+
179.9169	12	C5HCl3N+
211.889	18	C5HCl3NS+
