Mass spectrum: Bromacil; LC-ESI-QFT; MS2; CE: 120%; R=15000; [M+H]+
Name: Bromacil
Name: 5-bromo-3-butan-2-yl-6-methyl-1H-pyrimidine-2,4-dione
Formula: C9H13BrN2O2
Exact mass: 260.0160398
SMILES: CCC(C)N1C(=O)NC(C)=C(Br)C1=O
InChI: InChI=1S/C9H13BrN2O2/c1-4-5(2)12-8(13)7(10)6(3)11-9(12)14/h5H,4H2,1-3H3,(H,11,14)
Instrument: Q Exactive Plus
Instrument type: LC-ESI-QFT
Ms type: MS2
Ion mode: POSITIVE
Ionization: ESI
Fragmentation mode: HCD
Collision energy: 120 % (nominal)
Resolution: 15000
Column name: XBridge C18 3.5um, 2.1x50mm, Waters
Retention time: 6.138 min
Base peak: 261.0235
Precursor m/z: 261.0233
Precursor type: [M+H]+
Precursor intensity: 277792870.2
m/z	relative intensity	assigned
52.0182	456	C3H2N+
54.0338	980	C3H4N+
55.0417	161	C3H5N+
64.0181	34	C4H2N+
68.0131	68	C3H2NO+
69.0083	181	C2HN2O+
69.0447	48	C3H5N2+
69.9923	165	C2NO2+
83.0365	76	C4H5NO+
92.9334	150	CH2Br+
97.0394	11	C4H5N2O+
98.0475	34	C4H6N2O+
104.9334	474	C2H2Br+
105.9287	187	CHBrN+
106.9129	66	CBrO+
106.949	215	C2H4Br+
116.9331	58	C3H2Br+
118.949	16	C3H4Br+
131.9443	999	C3H3BrN+
143.9443	26	C4H3BrN+
161.9547	73	C4H5BrNO+
186.9498	26	C5H4BrN2O+
204.9608	14	C5H6BrN2O2+
