Mass spectrum: Xylazine; LC-ESI-QFT; MS2; CE: 60%; R=15000; [M+H]+
Name: Xylazine
Name: N-(2,6-dimethylphenyl)-5,6-dihydro-4H-1,3-thiazin-2-amine
Formula: C12H16N2S
Exact mass: 220.1034195
SMILES: CC1=C(C(=CC=C1)C)NC2=NCCCS2
InChI: InChI=1S/C12H16N2S/c1-9-5-3-6-10(2)11(9)14-12-13-7-4-8-15-12/h3,5-6H,4,7-8H2,1-2H3,(H,13,14)
Instrument: Exploris 240 Thermo Scientific
Instrument type: LC-ESI-QFT
Ms type: MS2
Ion mode: POSITIVE
Ionization: ESI
Fragmentation mode: HCD
Collision energy: 60 % (nominal)
Resolution: 15000
Column name: XBridge C18 3.5um, 2.1x50mm, Waters
Retention time: 3.731 min
Base peak: 221.1105
Precursor m/z: 221.1107
Precursor type: [M+H]+
m/z	relative intensity	assigned
58.0651	140	C3H8N+
67.0416	18	C4H5N+
71.9903	81	C2H2NS+
75.0263	46	C3H7S+
90.0373	834	C3H8NS+
100.0215	84	C4H6NS+
120.0807	26	C8H10N+
121.0887	49	C8H11N+
147.0918	168	C9H11N2+
164.0528	263	C9H10NS+
221.1108	999	C12H17N2S+
