Mass spectrum: Edoxaban; LC-ESI-QFT; MS2; CE: 75%; R=15000; [M+H]+
Name: Edoxaban
Name: Edoxaban impurity 5
Name: N`-(5-chloranylpyridin-2-yl)-N-[(1S,2R,4S)-4-(dimethylcarbamoyl)-2-[(5-methyl-6,7-dihydro-4H-[1,3]thiazolo[5,4-c]pyridin-2-yl)carbonylamino]cyclohexyl]ethanediamide
Formula: C24H30ClN7O4S
Exact mass: 547.1768511
SMILES: CN1CCC2=C(C1)SC(=N2)C(=O)NC3CC(CCC3NC(=O)C(=O)NC4=NC=C(C=C4)Cl)C(=O)N(C)C
InChI: InChI=1S/C24H30ClN7O4S/c1-31(2)24(36)13-4-6-15(27-20(33)21(34)30-19-7-5-14(25)11-26-19)17(10-13)28-22(35)23-29-16-8-9-32(3)12-18(16)37-23/h5,7,11,13,15,17H,4,6,8-10,12H2,1-3H3,(H,27,33)(H,28,35)(H,26,30,34)
Instrument: Q Exactive
Instrument type: LC-ESI-QFT
Ms type: MS2
Ion mode: POSITIVE
Ionization: ESI
Fragmentation mode: HCD
Collision energy: 75 % (nominal)
Resolution: 15000
Column name: XBridge C18 3.5um, 2.1x50mm, Waters
Retention time: 4.818 min
Base peak: 548.1841
Precursor m/z: 548.1841
Precursor type: [M+H]+
Precursor intensity: 580986582.02
m/z	relative intensity	assigned
68.0494	25	C4H6N+
72.0444	999	C3H6NO+
76.018	29	C5H2N+
79.0542	196	C6H7+
80.0495	15	C5H6N+
85.0107	49	C4H5S+
94.0652	508	C6H8N+
95.0492	35	C6H7O+
95.073	125	C6H9N+
96.0809	294	C6H10N+
100.0757	28	C5H10NO+
105.0449	13	C6H5N2+
107.0493	54	C7H7O+
111.995	39	C5H3ClN+
112.0216	178	C5H6NS+
122.06	56	C7H8NO+
129.0213	65	C5H6ClN2+
130.0055	447	C5H5ClNO+
139.0869	12	C4H14ClN3+
152.107	25	C9H14NO+
153.0482	623	C7H9N2S+
155.0007	490	C6H4ClN2O+
156.012	21	C3H9ClN2OS+
158.027	27	C6H8NO2S+
177.0482	77	C9H9N2S+
205.0794	33	C11H13N2S+
232.09	25	C12H14N3S+
