Mass spectrum: Isoxaflutole; LC-ESI-QFT; MS2; CE: 180%; R=15000; [M+H]+
Name: Isoxaflutole
Name: (5-cyclopropyl-1,2-oxazol-4-yl)-[2-methylsulfonyl-4-(trifluoromethyl)phenyl]methanone
Formula: C15H12F3NO4S
Exact mass: 359.0439135
SMILES: CS(=O)(=O)C1=C(C=CC(=C1)C(F)(F)F)C(=O)C1=C(ON=C1)C1CC1
InChI: InChI=1S/C15H12F3NO4S/c1-24(21,22)12-6-9(15(16,17)18)4-5-10(12)13(20)11-7-19-23-14(11)8-2-3-8/h4-8H,2-3H2,1H3
Instrument: Q Exactive Plus
Instrument type: LC-ESI-QFT
Ms type: MS2
Ion mode: POSITIVE
Ionization: ESI
Fragmentation mode: HCD
Collision energy: 180 % (nominal)
Resolution: 15000
Column name: XBridge C18 3.5um, 2.1x50mm, Waters
Retention time: 7.750 min
Base peak: 360.0514
Precursor m/z: 360.0512
Precursor type: [M+H]+
Precursor intensity: 182019318.31
m/z	relative intensity	assigned
50.0151	206	C4H2+
51.0041	85	CHF2+
51.023	151	C4H3+
53.0021	36	C3HO+
53.0386	20	C4H5+
57.0136	183	C3H2F+
61.0072	44	C5H+
62.0151	134	C5H2+
63.0229	383	C5H3+
65.0386	16	C5H5+
68.0057	126	C4HF+
68.9794	176	C3HS+
68.9947	104	CF3+
70.0214	90	C4H3F+
74.0151	503	C6H2+
75.0041	322	C3HF2+
75.0229	999	C6H3+
81.0136	85	C5H2F+
82.0213	15	C5H3F+
83.0292	80	C5H4F+
87.0229	37	C7H3+
88.0118	11	C4H2F2+
89.0387	27	C7H5+
92.9794	20	C5HS+
92.9946	32	C3F3+
93.0134	61	C6H2F+
94.0214	189	C6H3F+
94.995	65	C5H3S+
95.0493	28	C6H7O+
98.0151	49	C8H2+
99.0042	116	C5HF2+
99.0232	20	C8H3+
101.0197	68	C5H3F2+
112.9858	24	C5H2FS+
113.0199	11	C6H3F2+
119.0106	15	C5H2F3+
123.0038	47	C7HF2+
125.0198	251	C7H3F2+
132.0184	18	C6H3F3+
143.0104	212	C7H2F3+
