Mass spectrum: Alpelisib; LC-ESI-QFT; MS2; CE: 60%; R=15000; [M+H]+
Name: Alpelisib
Name: (2S)-N1-[4-methyl-5-[2-[1,1,1-tris(fluoranyl)-2-methyl-propan-2-yl]pyridin-4-yl]-1,3-thiazol-2-yl]pyrrolidine-1,2-dicarboxamide
Name: 1-N-[4-methyl-5-[2-(1,1,1-trifluoro-2-methylpropan-2-yl)pyridin-4-yl]-1,3-thiazol-2-yl]pyrrolidine-1,2-dicarboxamide
Formula: C19H22F3N5O2S
Exact mass: 441.1446306
SMILES: CC1=C(SC(=N1)NC(=O)N2CCCC2C(=O)N)C3=CC(=NC=C3)C(C)(C)C(F)(F)F
InChI: InChI=1S/C19H22F3N5O2S/c1-10-14(11-6-7-24-13(9-11)18(2,3)19(20,21)22)30-16(25-10)26-17(29)27-8-4-5-12(27)15(23)28/h6-7,9,12H,4-5,8H2,1-3H3,(H2,23,28)(H,25,26,29)
Instrument: Exploris 240 Thermo Scientific
Instrument type: LC-ESI-QFT
Ms type: MS2
Ion mode: POSITIVE
Ionization: ESI
Fragmentation mode: HCD
Collision energy: 60 % (nominal)
Resolution: 15000
Column name: XBridge C18 3.5um, 2.1x50mm, Waters
Retention time: 7.742 min
Base peak: 442.1515
Precursor m/z: 442.1519
Precursor type: [M+H]+
m/z	relative intensity	assigned
70.0651	999	C4H8N+
85.9697	44	C2NOS+
104.0494	44	C2H5FN4+
117.0576	32	C8H7N+
128.0495	32	C9H6N+
129.0572	226	C4H6FN4+
130.0646	68	C4H7FN4+
139.0543	31	C11H7+
141.0572	24	C10H7N+
143.0734	37	C10H9N+
144.0811	23	C10H10N+
148.0555	34	C4H6F2N4+
154.0651	154	C11H8N+
155.0739	51	C3H9F2N4O+
156.0809	51	C11H10N+
161.0474	90	C9H7NO2+
166.0657	58	C12H8N+
167.0729	133	C12H9N+
172.0219	23	C10H6NS+
172.0555	114	C6H6F2N4+
178.012	268	C9H5FNS+
186.0382	24	C3H8F2N4OS+
188.0529	109	C11H10NS+
192.0279	34	C5H6F2N4S+
202.0776	329	C11H9FN3+
203.0205	37	C11H6FNS+
203.0839	70	C6H13N5OS+
204.0284	95	C3H7F3N4OS+
252.0226	18	C13H6N3OS+
258.0703	43	C10H13FN3O2S+
