Mass spectrum: Nimesulide; LC-ESI-QFT; MS2; CE: 30%; R=17500; [M+H]+
Name: Nimesulide
Name: N-(4-nitro-2-phenoxyphenyl)methanesulfonamide
Formula: C13H12N2O5S
Exact mass: 308.046692484
SMILES: CS(=O)(=O)NC1=C(C=C(C=C1)[N+](=O)[O-])OC2=CC=CC=C2
InChI: InChI=1S/C13H12N2O5S/c1-21(18,19)14-12-8-7-10(15(16)17)9-13(12)20-11-5-3-2-4-6-11/h2-9,14H,1H3
Instrument: Exploris 240 Orbitrap Thermo Scientific
Instrument type: LC-ESI-QFT
Ms type: MS2
Ion mode: POSITIVE
Ionization: ESI
Fragmentation mode: HCD
Collision energy: 30 % (nominal)
Resolution: 17500
Column name: XBridge C18 3.5um, 2.1x50mm, Waters
Retention time: 7.676 min
Base peak: 132.9581
Precursor m/z: 309.054
Precursor type: [M+H]+
m/z	relative intensity	assigned
93.0333	27	C6H5O+
183.0673	54	C12H9NO+
184.0754	233	C12H10NO+
230.0684	520	C12H10N2O3+
292.0512	999	C13H12N2O4S+
