Mass spectrum: Abacavir; LC-ESI-QFT; MS2; CE: 60%; R=17500; [M+H]+
Name: Abacavir
Name: {4-[2-amino-6-(cyclopropylamino)-9H-purin-9-yl]cyclopent-2-en-1-yl}methanol
Name: [4-[2-amino-6-(cyclopropylamino)purin-9-yl]cyclopent-2-en-1-yl]methanol
Formula: C14H18N6O
Exact mass: 286.1542092
SMILES: C1CC1NC2=C3C(=NC(=N2)N)N(C=N3)C4CC(C=C4)CO
InChI: InChI=1S/C14H18N6O/c15-14-18-12(17-9-2-3-9)11-13(19-14)20(7-16-11)10-4-1-8(5-10)6-21/h1,4,7-10,21H,2-3,5-6H2,(H3,15,17,18,19)
Instrument: Exploris 240 Orbitrap Thermo Scientific
Instrument type: LC-ESI-QFT
Ms type: MS2
Ion mode: POSITIVE
Ionization: ESI
Fragmentation mode: HCD
Collision energy: 60 % (nominal)
Resolution: 17500
Column name: XBridge C18 3.5um, 2.1x50mm, Waters
Retention time: 3.267 min
Base peak: 287.1609
Precursor m/z: 287.1615
Precursor type: [M+H]+
m/z	relative intensity	assigned
58.0651	56	C3H8N+
67.0543	27	C5H7+
77.0386	19	C6H5+
79.0542	258	C6H7+
95.0489	5	C6H7O+
97.0647	7	C6H9O+
109.0508	34	C4H5N4+
134.0459	47	C5H4N5+
136.0617	10	C5H6N5+
147.066	6	C7H7N4+
149.0821	33	C7H9N4+
150.0647	249	C5H6N6+
151.0724	6	C5H7N6+
163.072	18	C6H7N6+
164.0928	39	C7H10N5+
174.0775	157	C8H8N5+
191.1039	999	C8H11N6+
