Mass spectrum: 6-O-Desmethyl-mycophenolic acid; LC-ESI-QFT; MS2; CE: 75%; R=17500; [M+H]+
Name: 6-O-Desmethyl-mycophenolic acid
Name: 6-(4,6-dihydroxy-7-methyl-3-oxo-1H-2-benzofuran-5-yl)-4-methylhex-4-enoic acid
Formula: C16H18O6
Exact mass: 306.1103383
SMILES: CC1=C2COC(=O)C2=C(C(=C1O)CC=C(C)CCC(=O)O)O
InChI: InChI=1S/C16H18O6/c1-8(4-6-12(17)18)3-5-10-14(19)9(2)11-7-22-16(21)13(11)15(10)20/h3,19-20H,4-7H2,1-2H3,(H,17,18)
Instrument: Exploris 240 Orbitrap Thermo Scientific
Instrument type: LC-ESI-QFT
Ms type: MS2
Ion mode: POSITIVE
Ionization: ESI
Fragmentation mode: HCD
Collision energy: 75 % (nominal)
Resolution: 17500
Column name: XBridge C18 3.5um, 2.1x50mm, Waters
Retention time: 6.296 min
Base peak: 307.1173
Precursor m/z: 307.1176
Precursor type: [M+H]+
m/z	relative intensity	assigned
55.0177	15	C3H3O+
55.0542	3	C4H7+
67.0541	8	C5H7+
69.0698	13	C5H9+
79.0542	19	C6H7+
81.0698	39	C6H9+
83.0129	7	C4H3O2+
91.0541	17	C7H7+
95.0492	7	C6H7O+
97.0648	22	C6H9O+
107.0493	7	C7H7O+
109.0647	29	C7H9O+
119.0489	15	C8H7O+
121.0646	4	C8H9O+
123.0439	8	C7H7O2+
135.0442	6	C8H7O2+
136.052	58	C8H8O2+
137.0597	44	C8H9O2+
147.0438	11	C9H7O2+
151.0385	6	C8H7O3+
161.0593	11	C10H9O2+
163.0389	88	C9H7O3+
164.0468	46	C9H8O3+
165.0546	439	C9H9O3+
175.0391	9	C10H7O3+
178.026	7	C9H6O4+
181.0491	25	C9H9O4+
193.0495	999	C10H9O4+
201.0909	7	C13H13O2+
209.0441	4	C10H9O5+
225.091	9	C15H13O2+
271.0974	4	C16H15O4+
