Mass spectrum: Tebufenpyrad; LC-ESI-QFT; MS2; CE: 90%; R=15000; [M+H]+
Name: Tebufenpyrad
Name: N-[(4-tert-butylphenyl)methyl]-4-chloro-5-ethyl-2-methylpyrazole-3-carboxamide
Formula: C18H24ClN3O
Exact mass: 333.1607901
SMILES: CCC1=NN(C(=C1Cl)C(=O)NCC2=CC=C(C=C2)C(C)(C)C)C
InChI: InChI=1S/C18H24ClN3O/c1-6-14-15(19)16(22(5)21-14)17(23)20-11-12-7-9-13(10-8-12)18(2,3)4/h7-10H,6,11H2,1-5H3,(H,20,23)
Instrument: Exploris 240 Thermo Scientific
Instrument type: LC-ESI-QFT
Ms type: MS2
Ion mode: POSITIVE
Ionization: ESI
Fragmentation mode: HCD
Collision energy: 90 % (nominal)
Resolution: 15000
Column name: XBridge C18 3.5um, 2.1x50mm, Waters
Retention time: 13.410 min
Base peak: 334.1678
Precursor m/z: 334.1681
Precursor type: [M+H]+
m/z	relative intensity	assigned
54.0338	59	C3H4N+
55.0542	33	C4H7+
56.0494	31	C3H6N+
62.9996	40	C2H4Cl+
68.0495	11	C4H6N+
75.9948	371	C2H3ClN+
79.0542	32	C6H7+
81.0448	58	C4H5N2+
82.0526	32	C4H6N2+
90.0105	150	C3H5ClN+
91.0541	140	C7H7+
95.0604	25	C5H7N2+
104.0619	36	C8H8+
105.0698	251	C8H9+
107.0856	47	C8H11+
115.0055	14	C4H4ClN2+
117.0213	999	C4H6ClN2+
117.0697	518	C9H9+
119.0854	304	C9H11+
130.029	43	C5H7ClN2+
131.0854	39	C10H11+
132.0932	500	C10H12+
147.1165	81	C11H15+
