Mass spectrum: 3-(Trifluoromethyl)aniline; LC-ESI-QFT; MS2; CE: 75%; R=15000; [M+H]+
Name: 3-(Trifluoromethyl)aniline
Formula: C7H6F3N
Exact mass: 161.0452339
SMILES: C1=CC(=CC(=C1)N)C(F)(F)F
InChI: InChI=1S/C7H6F3N/c8-7(9,10)5-2-1-3-6(11)4-5/h1-4H,11H2
Instrument: Exploris 240 Thermo Scientific
Instrument type: LC-ESI-QFT
Ms type: MS2
Ion mode: POSITIVE
Ionization: ESI
Fragmentation mode: HCD
Collision energy: 75 % (nominal)
Resolution: 15000
Column name: XBridge C18 3.5um, 2.1x50mm, Waters
Retention time: 5.806 min
Base peak: 162.0523
Precursor m/z: 162.0525
Precursor type: [M+H]+
m/z	relative intensity	assigned
77.0386	39	C6H5+
93.0572	999	C6H7N+
142.0461	599	C7H6F2N+
145.0258	357	C7H4F3+
162.0523	648	C7H7F3N+
