Mass spectrum: Nifedipine; LC-ESI-QFT; MS2; CE: 15%; R=15000; [M+H]+
Name: Nifedipine
Name: dimethyl 2,6-dimethyl-4-(2-nitrophenyl)-1,4-dihydropyridine-3,5-dicarboxylate
Formula: C17H18N2O6
Exact mass: 346.1164863
SMILES: CC1=C(C(C(=C(N1)C)C(=O)OC)C2=CC=CC=C2[N+](=O)[O-])C(=O)OC
InChI: InChI=1S/C17H18N2O6/c1-9-13(16(20)24-3)15(14(10(2)18-9)17(21)25-4)11-7-5-6-8-12(11)19(22)23/h5-8,15,18H,1-4H3
Instrument: Exploris 240 Thermo Scientific
Instrument type: LC-ESI-QFT
Ms type: MS2
Ion mode: POSITIVE
Ionization: ESI
Fragmentation mode: HCD
Collision energy: 15 % (nominal)
Resolution: 15000
Column name: XBridge C18 3.5um, 2.1x50mm, Waters
Retention time: 7.583 min
Base peak: 315.0977
Precursor m/z: 347.1238
Precursor type: [M+H]+
m/z	relative intensity	assigned
195.0915	37	C13H11N2+
211.0866	34	C13H11N2O+
239.0815	104	C14H11N2O2+
241.0971	65	C14H13N2O2+
246.0761	94	C13H12NO4+
253.0975	38	C15H13N2O2+
254.1052	99	C15H14N2O2+
255.0765	32	C14H11N2O3+
271.1077	248	C15H15N2O3+
315.0977	999	C16H15N2O5+
