Mass spectrum: Nimesulide; LC-ESI-QFT; MS2; CE: 150%; R=17500; [M+H]+
Name: Nimesulide
Name: N-(4-nitro-2-phenoxyphenyl)methanesulfonamide
Formula: C13H12N2O5S
Exact mass: 308.046692484
SMILES: CS(=O)(=O)NC1=C(C=C(C=C1)[N+](=O)[O-])OC2=CC=CC=C2
InChI: InChI=1S/C13H12N2O5S/c1-21(18,19)14-12-8-7-10(15(16)17)9-13(12)20-11-5-3-2-4-6-11/h2-9,14H,1H3
Instrument: Exploris 240 Orbitrap Thermo Scientific
Instrument type: LC-ESI-QFT
Ms type: MS2
Ion mode: POSITIVE
Ionization: ESI
Fragmentation mode: HCD
Collision energy: 150 % (nominal)
Resolution: 17500
Column name: XBridge C18 3.5um, 2.1x50mm, Waters
Retention time: 7.676 min
Base peak: 132.9581
Precursor m/z: 309.054
Precursor type: [M+H]+
m/z	relative intensity	assigned
50.015	82	C4H2+
51.0229	558	C4H3+
52.0309	136	C4H4+
53.0388	96	C4H5+
77.0385	354	C6H5+
78.0338	338	C5H4N+
78.0463	380	C6H6+
89.0387	115	C7H5+
95.0492	228	C6H7O+
101.0387	101	C8H5+
102.0464	326	C8H6+
105.045	249	C6H5N2+
115.0543	183	C9H7+
126.0462	184	C10H6+
128.0496	999	C3H12O3S+
128.0619	383	C10H8+
129.0447	179	C8H5N2+
145.0648	129	C10H9O+
146.0601	263	C9H8NO+
153.0577	197	C11H7N+
154.065	882	C11H8N+
155.0606	386	C10H7N2+
