Mass spectrum: BifenoxH; LC-ESI-QFT; MS2; CE: 30%; R=15000; [M+H]+
Name: BifenoxH
Name: Bifenox
Name: methyl 5-(2,4-dichlorophenoxy)-2-nitrobenzoate
Formula: C14H9Cl2NO5
Exact mass: 340.9857777
SMILES: COC(=O)C1=C(C=CC(=C1)OC2=C(C=C(C=C2)Cl)Cl)[N+](=O)[O-]
InChI: InChI=1S/C14H9Cl2NO5/c1-21-14(18)10-7-9(3-4-12(10)17(19)20)22-13-5-2-8(15)6-11(13)16/h2-7H,1H3
Instrument: Q Exactive Plus
Instrument type: LC-ESI-QFT
Ms type: MS2
Ion mode: POSITIVE
Ionization: ESI
Fragmentation mode: HCD
Collision energy: 30 % (nominal)
Resolution: 15000
Column name: XBridge C18 3.5um, 2.1x50mm, Waters
Retention time: 12.553 min
Base peak: 164.9845
Precursor m/z: 341.9931
Precursor type: [M+H]+
Precursor intensity: 10833477.93
m/z	relative intensity	assigned
67.0178	23	C4H3O+
68.9971	61	C3HO2+
76.018	12	C5H2N+
78.0338	20	C5H4N+
104.013	151	C6H2NO+
128.0023	14	C6H5ClO+
140.0497	12	C10H6N+
162.9712	13	C6H5Cl2O+
172.9668	102	C9ClNO+
174.0103	60	C10H5ClN+
182.9764	45	C9H5Cl2+
188.9503	999	C7H3Cl2O2+
203.0131	160	C11H6ClNO+
230.0004	14	C12H5ClNO2+
231.0083	57	C12H6ClNO2+
238.9656	29	C11H5Cl2O2+
265.9768	561	C12H6Cl2NO2+
309.9667	642	C13H6Cl2NO4+
