Mass spectrum: Imatinib; LC-ESI-QFT; MS2; CE: 30%; R=15000; [M+H]+
Name: Imatinib
Name: 4-[(4-methylpiperazin-1-yl)methyl]-N-[4-methyl-3-[(4-pyridin-3-ylpyrimidin-2-yl)amino]phenyl]benzamide
Formula: C29H31N7O
Exact mass: 493.2590086
SMILES: CC1=C(C=C(C=C1)NC(=O)C2=CC=C(C=C2)CN3CCN(CC3)C)NC4=NC=CC(=N4)C5=CN=CC=C5
InChI: InChI=1S/C29H31N7O/c1-21-5-10-25(18-27(21)34-29-31-13-11-26(33-29)24-4-3-12-30-19-24)32-28(37)23-8-6-22(7-9-23)20-36-16-14-35(2)15-17-36/h3-13,18-19H,14-17,20H2,1-2H3,(H,32,37)(H,31,33,34)
Instrument: Exploris 240 Thermo Scientific
Instrument type: LC-ESI-QFT
Ms type: MS2
Ion mode: POSITIVE
Ionization: ESI
Fragmentation mode: HCD
Collision energy: 30 % (nominal)
Resolution: 15000
Column name: XBridge C18 3.5um, 2.1x50mm, Waters
Retention time: 4.568 min
Base peak: 247.6363
Precursor m/z: 494.2663
Precursor type: [M+H]+
m/z	relative intensity	assigned
56.0495	144	C3H6N+
58.0651	353	C3H8N+
70.0651	362	C4H8N+
72.0808	44	C4H10N+
91.0544	52	C7H7+
97.076	84	C5H9N2+
98.0838	156	C5H10N2+
99.0916	367	C5H11N2+
104.0495	41	C7H6N+
105.0334	81	C7H5O+
111.0915	75	C6H11N2+
118.0412	101	C8H6O+
119.0491	230	C8H7O+
121.0758	73	C7H9N2+
131.0493	20	C9H7O+
131.0603	285	C8H7N2+
132.0684	53	C8H8N2+
173.0825	30	C9H9N4+
194.0964	212	C14H12N+
202.0777	387	C16H10+
206.0835	105	C14H10N2+
219.0923	43	C15H11N2+
221.1073	153	C15H13N2+
222.0912	999	C15H12NO+
223.0991	289	C15H13NO+
237.1025	26	C15H13N2O+
238.1096	193	C15H14N2O+
247.0864	788	C16H11N2O+
259.0981	27	C18H13NO+
264.1131	498	C16H14N3O+
265.0967	340	C14H11N5O+
276.1249	47	C16H14N5+
290.1286	224	C18H16N3O+
349.1449	20	C23H17N4+
366.1713	191	C25H22N2O+
376.1559	176	C24H18N5+
378.135	893	C23H16N5O+
379.1428	523	C23H17N5O+
394.1661	467	C24H20N5O+
