Mass spectrum: Prothioconazole; LC-ESI-QFT; MS2; CE: 30%; R=15000; [M+H]+
Name: Prothioconazole
Name: 2-[2-(1-chlorocyclopropyl)-3-(2-chlorophenyl)-2-hydroxypropyl]-1H-1,2,4-triazole-3-thione
Formula: C14H15Cl2N3OS
Exact mass: 343.0312885
SMILES: C1CC1(C(CC2=CC=CC=C2Cl)(CN3C(=S)N=CN3)O)Cl
InChI: InChI=1S/C14H15Cl2N3OS/c15-11-4-2-1-3-10(11)7-14(20,13(16)5-6-13)8-19-12(21)17-9-18-19/h1-4,9,20H,5-8H2,(H,17,18,21)
Instrument: Exploris 240 Thermo Scientific
Instrument type: LC-ESI-QFT
Ms type: MS2
Ion mode: POSITIVE
Ionization: ESI
Fragmentation mode: HCD
Collision energy: 30 % (nominal)
Resolution: 15000
Column name: XBridge C18 3.5um, 2.1x50mm, Waters
Retention time: 11.770 min
Base peak: 344.0382
Precursor m/z: 344.0386
Precursor type: [M+H]+
m/z	relative intensity	assigned
102.0119	351	C2H4N3S+
114.0119	255	C3H4N3S+
125.015	181	C7H6Cl+
149.0146	37	C9H6Cl+
153.0698	40	CH16ClN3OS+
154.0773	90	C12H10+
163.0305	99	C10H8Cl+
166.0436	31	C7H8N3S+
189.0462	663	C12H10Cl+
190.0539	27	C12H11Cl+
196.9916	233	C10H7Cl2+
225.0228	453	C12H11Cl2+
290.0511	350	C14H13ClN3S+
326.0278	999	C14H14Cl2N3S+
