Mass spectrum: Bicalutamide; LC-ESI-QFT; MS2; CE: 150%; R=15000; [M-H]-
Name: Bicalutamide
Name: N-[4-cyano-3-(trifluoromethyl)phenyl]-3-(4-fluorophenyl)sulfonyl-2-hydroxy-2-methylpropanamide
Formula: C18H14F4N2O4S
Exact mass: 430.0610408
SMILES: CC(O)(CS(=O)(=O)C1=CC=C(F)C=C1)C(=O)NC1=CC(=C(C=C1)C#N)C(F)(F)F
InChI: InChI=1S/C18H14F4N2O4S/c1-17(26,10-29(27,28)14-6-3-12(19)4-7-14)16(25)24-13-5-2-11(9-23)15(8-13)18(20,21)22/h2-8,26H,10H2,1H3,(H,24,25)
Instrument: Q Exactive Plus
Instrument type: LC-ESI-QFT
Ms type: MS2
Ion mode: NEGATIVE
Ionization: ESI
Fragmentation mode: HCD
Collision energy: 150 % (nominal)
Resolution: 15000
Column name: XBridge C18 3.5um, 2.1x50mm, Waters
Retention time: 8.393 min
Base peak: 429.0536
Precursor m/z: 429.0538
Precursor type: [M-H]-
Precursor intensity: 221455573.12
m/z	relative intensity	assigned
50.0035	52	C3N-
63.9624	999	O2S-
64.0193	66	C4H2N-
68.9958	40	CF3-
74.0036	109	C5N-
78.986	27	CH3O2S-
89.0146	15	C5HN2-
98.0036	200	C7N-
115.0303	127	C7H3N2-
118.01	56	C7HFN-
125.0146	13	C8HN2-
185.0333	10	C5H9F2NO2S-
