Mass spectrum: Mefenpyr-diethyl; LC-ESI-QFT; MS2; CE: 75%; R=15000; [M+H]+
Name: Mefenpyr-diethyl
Name: diethyl 1-(2,4-dichlorophenyl)-5-methyl-4H-pyrazole-3,5-dicarboxylate
Formula: C16H18Cl2N2O4
Exact mass: 372.0643624
SMILES: CCOC(=O)C1=NN(C2=C(Cl)C=C(Cl)C=C2)C(C)(C1)C(=O)OCC
InChI: InChI=1S/C16H18Cl2N2O4/c1-4-23-14(21)12-9-16(3,15(22)24-5-2)20(19-12)13-7-6-10(17)8-11(13)18/h6-8H,4-5,9H2,1-3H3
Instrument: Q Exactive Plus
Instrument type: LC-ESI-QFT
Ms type: MS2
Ion mode: POSITIVE
Ionization: ESI
Fragmentation mode: HCD
Collision energy: 75 % (nominal)
Resolution: 15000
Column name: XBridge C18 3.5um, 2.1x50mm, Waters
Retention time: 11.907 min
Base peak: 373.0719
Precursor m/z: 373.0716
Precursor type: [M+H]+
Precursor intensity: 306650994.19
m/z	relative intensity	assigned
74.0151	11	C6H2+
84.9839	47	C4H2Cl+
86.9632	41	C3ClO+
98.9996	53	C5H4Cl+
108.984	117	C6H2Cl+
120.9608	21	C4H3Cl2+
123.9948	37	C6H3ClN+
125.0027	49	C6H4ClN+
126.9947	60	C6H4ClO+
128.0023	55	C6H5ClO+
132.9606	999	C5H3Cl2+
142.0055	10	C6H5ClNO+
144.9606	60	C6H3Cl2+
151.0186	23	C8H6ClN+
159.9715	464	C6H4Cl2N+
160.9792	50	C6H5Cl2N+
162.9711	72	C6H5Cl2O+
163.0184	33	C9H6ClN+
164.0263	34	C9H7ClN+
165.034	19	C9H8ClN+
172.9668	415	C6H3Cl2N2+
173.987	20	C7H6Cl2N+
183.9715	25	C8H4Cl2N+
185.9871	470	C8H6Cl2N+
189.0214	106	C10H6ClN2+
190.0292	99	C10H7ClN2+
271.0037	52	C11H9Cl2N2O2+
