Mass spectrum: Cyclopentolate; LC-ESI-QFT; MS2; CE: 80%; R=15000; [M+H]+
Name: Cyclopentolate
Name: 2-(dimethylamino)ethyl 2-(1-oxidanylcyclopentyl)-2-phenyl-ethanoate
Formula: C17H25NO3
Exact mass: 291.1834437
SMILES: CN(C)CCOC(=O)C(C1=CC=CC=C1)C2(CCCC2)O
InChI: InChI=1S/C17H25NO3/c1-18(2)12-13-21-16(19)15(14-8-4-3-5-9-14)17(20)10-6-7-11-17/h3-5,8-9,15,20H,6-7,10-13H2,1-2H3
Instrument: Exploris 240 Thermo Scientific
Instrument type: LC-ESI-QFT
Ms type: MS2
Ion mode: POSITIVE
Ionization: ESI
Fragmentation mode: HCD
Collision energy: 80 % (nominal)
Resolution: 15000
Column name: XBridge C18 3.5um, 2.1x50mm, Waters
Retention time: 4.922 min
Base peak: 292.1903
Precursor m/z: 292.1907
Precursor type: [M+H]+
m/z	relative intensity	assigned
51.0229	146	C4H3+
53.0387	60	C4H5+
56.0495	279	C3H6N+
57.0575	95	C3H7N+
65.0386	999	C5H5+
67.0543	152	C5H7+
70.0652	94	C4H8N+
72.0807	137	C4H10N+
77.0387	103	C6H5+
79.0543	73	C6H7+
91.0542	934	C7H7+
95.049	160	C6H7O+
115.0542	255	C9H7+
128.062	270	C10H8+
202.0776	796	C16H10+
