Mass spectrum: Dimethenamid; LC-ESI-QFT; MS2; CE: 75%; R=15000; [M+H]+
Name: Dimethenamid
Name: 2-chloro-N-(2,4-dimethylthiophen-3-yl)-N-(1-methoxypropan-2-yl)acetamide
Formula: C12H18ClNO2S
Exact mass: 275.0746775
SMILES: COCC(C)N(C(=O)CCl)C1=C(C)SC=C1C
InChI: InChI=1S/C12H18ClNO2S/c1-8-7-17-10(3)12(8)14(11(15)5-13)9(2)6-16-4/h7,9H,5-6H2,1-4H3
Instrument: Q Exactive Plus
Instrument type: LC-ESI-QFT
Ms type: MS2
Ion mode: POSITIVE
Ionization: ESI
Fragmentation mode: HCD
Collision energy: 75 % (nominal)
Resolution: 15000
Column name: XBridge C18 3.5um, 2.1x50mm, Waters
Retention time: 8.898 min
Base peak: 276.0821
Precursor m/z: 276.082
Precursor type: [M+H]+
Precursor intensity: 856186615
m/z	relative intensity	assigned
56.0495	29	C3H6N+
58.995	75	C2H3S+
65.0387	18	C5H5+
73.0648	79	C4H9O+
75.9949	10	C2H3ClN+
76.9789	133	C2H2ClO+
79.0542	45	C6H7+
85.0107	15	C4H5S+
91.0542	36	C7H7+
93.0575	29	C6H7N+
93.0698	66	C7H9+
94.0652	71	C6H8N+
95.0492	41	C6H7O+
95.073	139	C6H9N+
99.0263	64	C5H7S+
101.0422	26	C5H9S+
105.0574	26	C7H7N+
108.0808	64	C7H10N+
110.0188	15	C6H6S+
111.0263	999	C6H7S+
112.0343	86	C6H8S+
113.0296	29	C5H7NS+
113.0419	77	C6H9S+
117.0572	26	C8H7N+
117.07	42	C9H9+
118.0652	29	C8H8N+
119.073	20	C8H9N+
120.0809	120	C8H10N+
123.0264	26	C7H7S+
124.0217	20	C6H6NS+
124.0341	51	C7H8S+
125.0295	21	C6H7NS+
125.042	122	C7H9S+
126.0372	653	C6H8NS+
127.0451	65	C6H9NS+
127.0577	29	C7H11S+
128.0529	142	C6H10NS+
134.0965	91	C9H12N+
135.1042	137	C9H13N+
136.0217	36	C7H6NS+
137.0294	102	C7H7NS+
138.0372	260	C7H8NS+
140.0528	32	C7H10NS+
150.0374	136	C8H8NS+
151.045	34	C8H9NS+
151.0577	90	C9H11S+
152.0166	108	C7H6NOS+
152.0528	299	C8H10NS+
153.0244	129	C7H7NOS+
153.0607	91	C8H11NS+
154.0321	43	C7H8NOS+
166.0318	42	C8H8NOS+
166.0683	32	C9H12NS+
167.0764	40	C9H13NS+
168.0841	423	C9H14NS+
203.0171	14	C8H10ClNOS+
244.0552	32	C11H15ClNOS+
