Mass spectrum: Prazosin; LC-ESI-QFT; MS2; CE: 30%; R=17500; [M-H]-
Name: Prazosin
Name: [4-(4-amino-6,7-dimethoxyquinazolin-2-yl)piperazin-1-yl]-(furan-2-yl)methanone
Formula: C19H21N5O4
Exact mass: 383.159354152
SMILES: COC1=C(C=C2C(=C1)C(=NC(=N2)N3CCN(CC3)C(=O)C4=CC=CO4)N)OC
InChI: InChI=1S/C19H21N5O4/c1-26-15-10-12-13(11-16(15)27-2)21-19(22-17(12)20)24-7-5-23(6-8-24)18(25)14-4-3-9-28-14/h3-4,9-11H,5-8H2,1-2H3,(H2,20,21,22)
Instrument: Exploris 240 Orbitrap Thermo Scientific
Instrument type: LC-ESI-QFT
Ms type: MS2
Ion mode: NEGATIVE
Ionization: ESI
Fragmentation mode: HCD
Collision energy: 30 % (nominal)
Resolution: 17500
Column name: XBridge C18 3.5um, 2.1x50mm, Waters
Retention time: 4.825 min
Base peak: 382.152
Precursor m/z: 382.1521
Precursor type: [M-H]-
m/z	relative intensity	assigned
110.0248	390	C5H4NO2-
202.0622	28	C10H8N3O2-
229.0729	33	C11H9N4O2-
230.0813	80	C11H10N4O2-
231.0891	9	C11H11N4O2-
244.0967	72	C12H12N4O2-
245.1043	120	C12H13N4O2-
271.1201	100	C14H15N4O2-
352.1052	245	C17H14N5O4-
367.1286	999	C18H17N5O4-
382.1522	863	C19H20N5O4-
