Mass spectrum: Neopentyl-Glycol-Diglycidyl-Ether; LC-ESI-QFT; MS2; CE: 25%; R=15000; [M+H]+
Name: Neopentyl-Glycol-Diglycidyl-Ether
Name: 2-[[2,2-dimethyl-3-(oxiran-2-ylmethoxy)propoxy]methyl]oxirane
Formula: C11H20O4
Exact mass: 216.1361591
SMILES: CC(C)(COCC1CO1)COCC2CO2
InChI: InChI=1S/C11H20O4/c1-11(2,7-12-3-9-5-14-9)8-13-4-10-6-15-10/h9-10H,3-8H2,1-2H3
Instrument: Exploris 240 Thermo Scientific
Instrument type: LC-ESI-QFT
Ms type: MS2
Ion mode: POSITIVE
Ionization: ESI
Fragmentation mode: HCD
Collision energy: 25 % (nominal)
Resolution: 15000
Column name: XBridge C18 3.5um, 2.1x50mm, Waters
Retention time: 5.479 min
Base peak: 234.1696
Precursor m/z: 217.1434
Precursor type: [M+H]+
m/z	relative intensity	assigned
55.0179	45	C3H3O+
55.0543	64	C4H7+
57.0335	999	C3H5O+
57.0698	132	C4H9+
59.0491	443	C3H7O+
67.0543	30	C5H7+
69.0698	604	C5H9+
71.049	73	C4H7O+
71.0855	177	C5H11+
73.0283	168	C3H5O2+
75.044	506	C3H7O2+
83.0492	49	C5H7O+
85.0647	139	C5H9O+
87.044	286	C4H7O2+
87.0804	117	C5H11O+
89.0597	80	C4H9O2+
93.0546	120	C3H9O3+
101.0598	52	C5H9O2+
103.0388	27	C4H7O3+
129.0547	55	C6H9O3+
145.086	31	C7H13O3+
161.1173	105	C8H17O3+
