Mass spectrum: Chloridazon; LC-ESI-QFT; MS2; CE: 45%; R=15000; [M+H]+
Name: Chloridazon
Name: 5-amino-4-chloro-2-phenylpyridazin-3-one
Formula: C10H8ClN3O
Exact mass: 221.0355896
SMILES: NC1=C(Cl)C(=O)N(N=C1)C1=CC=CC=C1
InChI: InChI=1S/C10H8ClN3O/c11-9-8(12)6-13-14(10(9)15)7-4-2-1-3-5-7/h1-6H,12H2
Instrument: Q Exactive Plus
Instrument type: LC-ESI-QFT
Ms type: MS2
Ion mode: POSITIVE
Ionization: ESI
Fragmentation mode: HCD
Collision energy: 45 % (nominal)
Resolution: 15000
Column name: XBridge C18 3.5um, 2.1x50mm, Waters
Retention time: 4.559 min
Base peak: 222.043
Precursor m/z: 222.0429
Precursor type: [M+H]+
Precursor intensity: 516363769.41
m/z	relative intensity	assigned
92.0495	107	C6H6N+
94.0652	39	C6H8N+
95.0492	16	C6H7O+
104.0495	217	C7H6N+
128.985	33	C4H2ClN2O+
146.0115	19	C4H5ClN3O+
186.0664	16	C10H8N3O+
193.0287	16	C10H8ClNO+
222.0429	999	C10H9ClN3O+
