Mass spectrum: Valeryl-4-hydroxyvalsartan; LC-ESI-QFT; MS2; CE: 60%; R=17500; [M+H]+
Name: Valeryl-4-hydroxyvalsartan
Name: 2-[4-hydroxypentanoyl-[[4-[2-(2H-tetrazol-5-yl)phenyl]phenyl]methyl]amino]-3-methylbutanoic acid
Formula: C24H29N5O4
Exact mass: 451.2219544
SMILES: CC(C)C(C(=O)O)N(CC1=CC=C(C=C1)C2=CC=CC=C2C3=NNN=N3)C(=O)CCC(C)O
InChI: InChI=1S/C24H29N5O4/c1-15(2)22(24(32)33)29(21(31)13-8-16(3)30)14-17-9-11-18(12-10-17)19-6-4-5-7-20(19)23-25-27-28-26-23/h4-7,9-12,15-16,22,30H,8,13-14H2,1-3H3,(H,32,33)(H,25,26,27,28)
Instrument: Exploris 240 Orbitrap Thermo Scientific
Instrument type: LC-ESI-QFT
Ms type: MS2
Ion mode: POSITIVE
Ionization: ESI
Fragmentation mode: HCD
Collision energy: 60 % (nominal)
Resolution: 17500
Column name: XBridge C18 3.5um, 2.1x50mm, Waters
Retention time: 6.688 min
Base peak: 452.2288
Precursor m/z: 452.2292
Precursor type: [M+H]+
m/z	relative intensity	assigned
55.0542	54	C4H7+
59.0491	9	C3H7O+
72.0807	56	C4H10N+
80.0495	20	C5H6N+
84.0807	13	C5H10N+
115.0545	23	C9H7+
129.0451	15	C8H5N2+
140.0491	57	C10H6N+
153.0699	277	C12H9+
154.1223	16	C9H16NO+
163.0546	58	C13H7+
165.0705	22	C13H9+
167.0722	45	C12H9N+
178.0784	400	C14H10+
180.0807	863	C13H10N+
190.0651	690	C14H8N+
191.0729	109	C14H9N+
196.0765	21	C13H10NO+
205.0759	167	C14H9N2+
206.0838	529	C14H10N2+
207.0916	999	C14H11N2+
