Mass spectrum: Pyraflufen-ethyl; LC-ESI-QFT; MS2; CE: 45%; R=15000; [M+H]+
Name: Pyraflufen-ethyl
Name: ethyl 2-[2-chloro-5-[4-chloro-5-(difluoromethoxy)-1-methylpyrazol-3-yl]-4-fluorophenoxy]acetate
Formula: C15H13Cl2F3N2O4
Exact mass: 412.0204469
SMILES: CCOC(=O)COC1=C(C=C(C(=C1)C2=NN(C(=C2Cl)OC(F)F)C)F)Cl
InChI: InChI=1S/C15H13Cl2F3N2O4/c1-3-24-11(23)6-25-10-4-7(9(18)5-8(10)16)13-12(17)14(22(2)21-13)26-15(19)20/h4-5,15H,3,6H2,1-2H3
Instrument: Exploris 240 Thermo Scientific
Instrument type: LC-ESI-QFT
Ms type: MS2
Ion mode: POSITIVE
Ionization: ESI
Fragmentation mode: HCD
Collision energy: 45 % (nominal)
Resolution: 15000
Column name: XBridge C18 3.5um, 2.1x50mm, Waters
Retention time: 11.460 min
Base peak: 413.0276
Precursor m/z: 413.0277
Precursor type: [M+H]+
m/z	relative intensity	assigned
201.9621	39	C8H3Cl2FN+
223.9906	51	C13HFO3+
225.0225	58	C10H7ClFN2O+
253.0174	618	C11H7ClFN2O2+
254.0249	141	C11H8ClFN2O2+
260.9991	650	C10H8Cl2FN2O+
268.9876	63	C11H5ClFNO4+
275.9863	96	C10H7Cl2FN2O2+
288.9941	999	C11H8Cl2FN2O2+
303.0141	264	C12H7ClF3N2O2+
304.022	568	C12H8ClF3N2O2+
310.9961	166	C11H8Cl2F3N2O+
325.9829	102	C11H7Cl2F3N2O2+
334.9995	278	C12H10Cl2FN2O4+
338.9912	624	C12H8Cl2F3N2O2+
