Mass spectrum: 2-Hydroxynevirapine; LC-ESI-QFT; MS2; CE: 150%; R=17500; [M+H]+
Name: 2-Hydroxynevirapine
Name: 2-Hydroxy Nevirapine
Name: 2-cyclopropyl-7-methyl-2,4,9,15-tetrazatricyclo[9.4.0.03,8]pentadeca-1(11),3(8),6,12,14-pentaene-5,10-dione
Formula: C15H14N4O2
Exact mass: 282.1116757
SMILES: CC1=CC(=O)NC2=C1NC(=O)C3=C(N2C4CC4)N=CC=C3
InChI: InChI=1S/C15H14N4O2/c1-8-7-11(20)17-14-12(8)18-15(21)10-3-2-6-16-13(10)19(14)9-4-5-9/h2-3,6-7,9H,4-5H2,1H3,(H,17,20)(H,18,21)
Instrument: Exploris 240 Orbitrap Thermo Scientific
Instrument type: LC-ESI-QFT
Ms type: MS2
Ion mode: POSITIVE
Ionization: ESI
Fragmentation mode: HCD
Collision energy: 150 % (nominal)
Resolution: 17500
Column name: XBridge C18 3.5um, 2.1x50mm, Waters
Retention time: 3.847 min
Base peak: 283.1187
Precursor m/z: 283.119
Precursor type: [M+H]+
m/z	relative intensity	assigned
50.0151	63	C4H2+
51.0229	475	C4H3+
52.0183	57	C3H2N+
52.0307	93	C4H4+
53.0386	45	C4H5+
54.0338	24	C3H4N+
63.023	51	C5H3+
64.0182	19	C4H2N+
65.0385	98	C5H5+
66.0338	173	C4H4N+
67.0415	86	C4H5N+
68.0495	596	C4H6N+
76.0182	72	C5H2N+
77.0387	77	C6H5+
78.0338	999	C5H4N+
79.0417	336	C5H5N+
80.0496	60	C5H6N+
81.0448	29	C4H5N2+
89.0386	129	C7H5+
90.0339	66	C6H4N+
90.0466	34	C7H6+
91.0416	30	C6H5N+
91.0541	56	C7H7+
92.037	207	C5H4N2+
92.0493	38	C6H6N+
93.0447	388	C5H5N2+
94.0288	29	C5H4NO+
95.0604	117	C5H7N2+
96.0444	282	C5H6NO+
103.0289	109	C6H3N2+
104.0368	30	C6H4N2+
104.0496	104	C7H6N+
105.0448	93	C6H5N2+
116.0493	87	C8H6N+
117.045	64	C7H5N2+
117.0575	94	C8H7N+
118.0526	79	C7H6N2+
119.048	85	C6H5N3+
119.0603	52	C7H7N2+
120.0557	58	C6H6N3+
121.0396	111	C6H5N2O+
129.0449	41	C8H5N2+
131.0605	194	C8H7N2+
133.0761	73	C8H9N2+
142.0526	42	C9H6N2+
143.0607	59	C9H7N2+
144.0555	62	C8H6N3+
158.0714	55	C9H8N3+
159.0553	20	C9H7N2O+
170.0719	34	C10H8N3+
171.0682	31	C11H9NO+
185.082	89	C10H9N4+
