Mass spectrum: 6-2-FTAB; LC-ESI-QFT; MS2; CE: 60%; R=17500; [M+H]+
Name: 6-2-FTAB
Name: 1-Propanaminium, N-(carboxymethyl)-N,N-dimethyl-3-(((3,3,4,4,5,5,6,6,7,7,8,8,8-tridecafluorooctyl)sulfonyl)amino)-, inner salt
Name: 2-[dimethyl-[3-(3,3,4,4,5,5,6,6,7,7,8,8,8-tridecafluorooctylsulfonylamino)propyl]azaniumyl]acetate
Formula: C15H19F13N2O4S
Exact mass: 570.085794948
SMILES: C[N+](C)(CCCNS(=O)(=O)CCC(C(C(C(C(C(F)(F)F)(F)F)(F)F)(F)F)(F)F)(F)F)CC(=O)[O-]
InChI: InChI=1S/C15H19F13N2O4S/c1-30(2,8-9(31)32)6-3-5-29-35(33,34)7-4-10(16,17)11(18,19)12(20,21)13(22,23)14(24,25)15(26,27)28/h29H,3-8H2,1-2H3
Instrument: Exploris 240 Orbitrap Thermo Scientific
Instrument type: LC-ESI-QFT
Ms type: MS2
Ion mode: POSITIVE
Ionization: ESI
Fragmentation mode: HCD
Collision energy: 60 % (nominal)
Resolution: 17500
Column name: XBridge C18 3.5um, 2.1x50mm, Waters
Retention time: 11.007 min
Base peak: 571.0927
Precursor m/z: 571.0931
Precursor type: [M+H]+
m/z	relative intensity	assigned
65.0196	300	C2H3F2+
68.9947	214	CF3+
72.0446	76	C3H6NO+
77.0197	124	C3H3F2+
95.0105	141	C3H2F3+
104.0706	999	C4H10NO2+
113.0012	95	C3HF4+
145.0066	95	C4H5N2O2S+
180.9873	101	C4H3F2N2O2S+
212.9936	338	C5H4F3N2O2S+
242.985	59	C6H3F4N2O2S+
