Mass spectrum: Oxazepam; LC-ESI-QFT; MS2; CE: 45%; R=15000; [M+H]+
Name: Oxazepam
Name: 7-chloro-3-hydroxy-5-phenyl-1,3-dihydro-1,4-benzodiazepin-2-one
Formula: C15H11ClN2O2
Exact mass: 286.0509053
SMILES: OC1N=C(C2=CC=CC=C2)C2=CC(Cl)=CC=C2NC1=O
InChI: InChI=1S/C15H11ClN2O2/c16-10-6-7-12-11(8-10)13(9-4-2-1-3-5-9)18-15(20)14(19)17-12/h1-8,15,20H,(H,17,19)
Instrument: Q Exactive Plus
Instrument type: LC-ESI-QFT
Ms type: MS2
Ion mode: POSITIVE
Ionization: ESI
Fragmentation mode: HCD
Collision energy: 45 % (nominal)
Resolution: 15000
Column name: XBridge C18 3.5um, 2.1x50mm, Waters
Retention time: 7.837 min
Base peak: 287.0581
Precursor m/z: 287.0582
Precursor type: [M+H]+
Precursor intensity: 396230952
m/z	relative intensity	assigned
93.0572	12	C6H7N+
104.0494	121	C7H6N+
128.0261	67	C6H7ClN+
153.0213	26	C7H6ClN2+
166.0053	35	C8H5ClNO+
231.0681	176	C13H12ClN2+
241.0524	999	C14H10ClN2+
257.0467	10	C14H10ClN2O+
269.0473	168	C15H10ClN2O+
