Mass spectrum: Chlorprothixene; LC-ESI-QFT; MS2; CE: 90%; R=17500; [M+H]+
Name: Chlorprothixene
Name: 3-(2-chlorothioxanthen-9-ylidene)-N,N-dimethylpropan-1-amine
Formula: C18H18ClNS
Exact mass: 315.084848256
SMILES: CN(C)CCC=C1C2=CC=CC=C2SC3=C1C=C(C=C3)Cl
InChI: InChI=1S/C18H18ClNS/c1-20(2)11-5-7-14-15-6-3-4-8-17(15)21-18-10-9-13(19)12-16(14)18/h3-4,6-10,12H,5,11H2,1-2H3
Instrument: Exploris 240 Orbitrap Thermo Scientific
Instrument type: LC-ESI-QFT
Ms type: MS2
Ion mode: POSITIVE
Ionization: ESI
Fragmentation mode: HCD
Collision energy: 90 % (nominal)
Resolution: 17500
Column name: XBridge C18 3.5um, 2.1x50mm, Waters
Retention time: 10.058 min
Base peak: 316.0919
Precursor m/z: 316.0921
Precursor type: [M+H]+
m/z	relative intensity	assigned
58.0651	226	C3H8N+
70.0651	504	C4H8N+
72.0805	13	C4H10N+
84.0808	341	C5H10N+
85.0884	29	C5H11N+
115.0544	18	C9H7+
128.0621	34	C10H8+
149.0157	16	C9H6Cl+
152.0616	35	C12H8+
162.0228	12	C10H7Cl+
165.0697	64	C13H9+
178.0774	33	C14H10+
195.0263	77	C13H7S+
196.0338	124	C13H8S+
199.0304	77	C13H8Cl+
202.0776	145	C16H10+
203.0855	163	C16H11+
208.034	18	C14H8S+
209.0416	57	C14H9S+
210.0497	188	C14H10S+
212.039	35	C14H9Cl+
221.0419	999	C15H9S+
231.0029	778	C13H8ClS+
234.0498	370	C16H10S+
235.0576	287	C16H11S+
238.0539	63	C16H11Cl+
255.0034	92	C15H8ClS+
