Mass spectrum: Clopyralid; LC-ESI-QFT; MS2; CE: 150%; R=15000; [M+H]+
Name: Clopyralid
Name: 3,6-dichloropyridine-2-carboxylic acid
Formula: C6H3Cl2NO2
Exact mass: 190.9540837
SMILES: OC(=O)C1=C(Cl)C=CC(Cl)=N1
InChI: InChI=1S/C6H3Cl2NO2/c7-3-1-2-4(8)9-5(3)6(10)11/h1-2H,(H,10,11)
Instrument: Q Exactive Plus
Instrument type: LC-ESI-QFT
Ms type: MS2
Ion mode: POSITIVE
Ionization: ESI
Fragmentation mode: HCD
Collision energy: 150 % (nominal)
Resolution: 15000
Column name: XBridge C18 3.5um, 2.1x50mm, Waters
Retention time: 3.094 min
Base peak: 191.9615
Precursor m/z: 191.9614
Precursor type: [M+H]+
Precursor intensity: 68969664.06
m/z	relative intensity	assigned
61.9792	344	CHClN+
75.0104	999	C5HN+
76.0182	37	C5H2N+
83.9762	184	C4HCl+
84.984	57	C4H2Cl+
99.9948	12	C4H3ClN+
109.9793	981	C5HClN+
118.945	66	C4HCl2+
127.9899	71	C5H3ClNO+
