Mass spectrum: Quinoxyfen; LC-ESI-QFT; MS2; CE: 90%; R=15000; [M+H]+
Name: Quinoxyfen
Name: 5,7-dichloro-4-(4-fluorophenoxy)quinoline
Formula: C15H8Cl2FNO
Exact mass: 306.9966975
SMILES: FC1=CC=C(OC2=CC=NC3=CC(Cl)=CC(Cl)=C23)C=C1
InChI: InChI=1S/C15H8Cl2FNO/c16-9-7-12(17)15-13(8-9)19-6-5-14(15)20-11-3-1-10(18)2-4-11/h1-8H
Instrument: Q Exactive Plus
Instrument type: LC-ESI-QFT
Ms type: MS2
Ion mode: POSITIVE
Ionization: ESI
Fragmentation mode: HCD
Collision energy: 90 % (nominal)
Resolution: 15000
Column name: XBridge C18 3.5um, 2.1x50mm, Waters
Retention time: 13.956 min
Base peak: 308.0044
Precursor m/z: 308.004
Precursor type: [M+H]+
Precursor intensity: 283474084.27
m/z	relative intensity	assigned
51.0229	12	C4H3+
71.0291	14	C4H4F+
74.0151	63	C6H2+
75.023	365	C6H3+
89.0386	14	C7H5+
95.0292	69	C6H4F+
113.0398	114	C6H6FO+
114.034	25	C8H4N+
115.0418	56	C8H5N+
122.9997	134	C7H4Cl+
127.0419	42	C9H5N+
132.0442	14	C8H6NO+
150.0105	76	C8H5ClN+
151.0183	62	C8H6ClN+
161.0024	14	C9H4ClN+
162.0105	999	C9H5ClN+
168.0212	47	C8H7ClNO+
169.9683	37	C8H4Cl2+
171.9714	16	C7H4Cl2N+
179.0133	77	C9H6ClNO+
180.0209	27	C9H7ClNO+
183.0606	32	C13H8F+
184.9794	94	C8H5Cl2N+
190.0652	30	C14H8N+
196.9795	235	C9H5Cl2N+
208.0557	38	C14H7FN+
209.0636	59	C14H8FN+
210.0712	31	C14H9FN+
213.9822	344	C9H6Cl2NO+
217.0213	10	C13H7ClF+
237.0585	87	C15H8FNO+
244.0322	18	C14H8ClFN+
245.0407	20	C14H9ClFN+
272.0273	33	C15H8ClFNO+
