Mass spectrum: Licarbazepine; LC-ESI-QFT; MS2; CE: 90%; R=17500; [M+H]+
Name: Licarbazepine
Name: 5-hydroxy-5,6-dihydrobenzo[b][1]benzazepine-11-carboxamide
Formula: C15H14N2O2
Exact mass: 254.1055277
SMILES: C1C(C2=CC=CC=C2N(C3=CC=CC=C31)C(=O)N)O
InChI: InChI=1S/C15H14N2O2/c16-15(19)17-12-7-3-1-5-10(12)9-14(18)11-6-2-4-8-13(11)17/h1-8,14,18H,9H2,(H2,16,19)
Instrument: Exploris 240 Orbitrap Thermo Scientific
Instrument type: LC-ESI-QFT
Ms type: MS2
Ion mode: POSITIVE
Ionization: ESI
Fragmentation mode: HCD
Collision energy: 90 % (nominal)
Resolution: 17500
Column name: XBridge C18 3.5um, 2.1x50mm, Waters
Retention time: 5.085 min
Base peak: 237.1021
Precursor m/z: 255.1128
Precursor type: [M+H]+
m/z	relative intensity	assigned
91.0541	29	C7H7+
116.0496	30	C8H6N+
117.0575	19	C8H7N+
152.0621	75	C12H8+
165.0698	205	C13H9+
166.0783	17	C13H10+
176.0617	22	C14H8+
179.0729	469	C13H9N+
190.0646	42	C14H8N+
191.0729	144	C14H9N+
192.0808	399	C14H10N+
193.0886	983	C14H11N+
194.0964	999	C14H12N+
