Mass spectrum: Imidacloprid; LC-ESI-QFT; MS2; CE: 15%; R=15000; [M+H]+
Name: Imidacloprid
Name: N-[1-[(6-chloro-3-pyridinyl)methyl]-4,5-dihydroimidazol-2-yl]nitramide
Name: N-[1-[(6-chloropyridin-3-yl)methyl]-4,5-dihydroimidazol-2-yl]nitramide
Formula: C9H10ClN5O2
Exact mass: 255.0523022
SMILES: [O-][N+](=O)\N=C1/NCCN1CC1=CN=C(Cl)C=C1
InChI: InChI=1S/C9H10ClN5O2/c10-8-2-1-7(5-12-8)6-14-4-3-11-9(14)13-15(16)17/h1-2,5H,3-4,6H2,(H,11,13)
Instrument: Q Exactive Plus
Instrument type: LC-ESI-QFT
Ms type: MS2
Ion mode: POSITIVE
Ionization: ESI
Fragmentation mode: HCD
Collision energy: 15 % (nominal)
Resolution: 15000
Column name: XBridge C18 3.5um, 2.1x50mm, Waters
Retention time: 4.086 min
Base peak: 256.0597
Precursor m/z: 256.0596
Precursor type: [M+H]+
Precursor intensity: 237713302.75
m/z	relative intensity	assigned
56.0495	28	C3H6N+
84.0557	236	C3H6N3+
99.0555	17	C4H7N2O+
126.0107	10	C6H5ClN+
128.0262	83	C6H7ClN+
174.09	107	C9H10N4+
175.0979	730	C9H11N4+
209.0589	999	C9H10ClN4+
210.0668	488	C9H11ClN4+
212.0586	410	C9H11ClN3O+
256.0596	843	C9H11ClN5O2+
