Mass spectrum: Tapentadol O-sulfate; LC-ESI-QFT; MS2; CE: 180%; R=17500; [M-H]-
Name: Tapentadol O-sulfate
Name: [3-[1-(dimethylamino)-2-methylpentan-3-yl]phenyl] hydrogen sulfate
Formula: C14H23NO4S
Exact mass: 301.1347792
SMILES: CCC(C1=CC(=CC=C1)OS(=O)(=O)O)C(C)CN(C)C
InChI: InChI=1S/C14H23NO4S/c1-5-14(11(2)10-15(3)4)12-7-6-8-13(9-12)19-20(16,17)18/h6-9,11,14H,5,10H2,1-4H3,(H,16,17,18)
Instrument: Exploris 240 Orbitrap Thermo Scientific
Instrument type: LC-ESI-QFT
Ms type: MS2
Ion mode: NEGATIVE
Ionization: ESI
Fragmentation mode: HCD
Collision energy: 180 % (nominal)
Resolution: 17500
Column name: XBridge C18 3.5um, 2.1x50mm, Waters
Retention time: 4.230 min
Base peak: 300.1274
Precursor m/z: 300.1275
Precursor type: [M-H]-
m/z	relative intensity	assigned
65.0396	137	C5H5-
79.9573	386	O3S-
91.0553	243	C7H7-
92.0268	39	C6H4O-
93.0346	163	C6H5O-
117.0348	68	C8H5O-
119.0502	999	C8H7O-
131.0503	25	C9H7O-
133.066	50	C9H9O-
