Mass spectrum: Procymidone; LC-ESI-QFT; MS2; CE: 30%; R=15000; [M+H]+
Name: Procymidone
Name: 3-(3,5-dichlorophenyl)-1,5-dimethyl-3-azabicyclo[3.1.0]hexane-2,4-dione
Formula: C13H11Cl2NO2
Exact mass: 283.016684
SMILES: CC12CC1(C)C(=O)N(C2=O)C1=CC(Cl)=CC(Cl)=C1
InChI: InChI=1S/C13H11Cl2NO2/c1-12-6-13(12,2)11(18)16(10(12)17)9-4-7(14)3-8(15)5-9/h3-5H,6H2,1-2H3
Instrument: Q Exactive Plus
Instrument type: LC-ESI-QFT
Ms type: MS2
Ion mode: POSITIVE
Ionization: ESI
Fragmentation mode: HCD
Collision energy: 30 % (nominal)
Resolution: 15000
Column name: XBridge C18 3.5um, 2.1x50mm, Waters
Retention time: 10.266 min
Base peak: 164.9846
Precursor m/z: 284.024
Precursor type: [M+H]+
Precursor intensity: 4449333.2
m/z	relative intensity	assigned
67.0543	38	C5H7+
95.0492	124	C6H7O+
113.0597	81	C6H9O2+
185.987	17	C8H6Cl2N+
212.003	17	C10H8Cl2N+
228.0339	72	C11H12Cl2N+
238.0184	19	C12H10Cl2N+
256.029	999	C12H12Cl2NO+
284.024	894	C13H12Cl2NO2+
