Mass spectrum: Siponimod; LC-ESI-QFT; MS2; CE: 60%; R=15000; [M+H]+
Name: Siponimod
Name: 1-[[4-[(E)-N-[[4-cyclohexyl-3-(trifluoromethyl)phenyl]methoxy]-C-methylcarbonimidoyl]-2-ethylphenyl]methyl]azetidine-3-carboxylic acid
Name: 1-[[4-[N-[[4-cyclohexyl-3-(trifluoromethyl)phenyl]methoxy]-C-methylcarbonimidoyl]-2-ethylphenyl]methyl]azetidine-3-carboxylic acid
Formula: C29H35F3N2O3
Exact mass: 516.2599776
SMILES: CCC1=C(C=CC(=C1)C(=NOCC2=CC(=C(C=C2)C3CCCCC3)C(F)(F)F)C)CN4CC(C4)C(=O)O
InChI: InChI=1S/C29H35F3N2O3/c1-3-21-14-23(10-11-24(21)15-34-16-25(17-34)28(35)36)19(2)33-37-18-20-9-12-26(22-7-5-4-6-8-22)27(13-20)29(30,31)32/h9-14,22,25H,3-8,15-18H2,1-2H3,(H,35,36)
Instrument: Exploris 240 Thermo Scientific
Instrument type: LC-ESI-QFT
Ms type: MS2
Ion mode: POSITIVE
Ionization: ESI
Fragmentation mode: HCD
Collision energy: 60 % (nominal)
Resolution: 15000
Column name: XBridge C18 3.5um, 2.1x50mm, Waters
Retention time: 13.993 min
Base peak: 517.267
Precursor m/z: 517.2673
Precursor type: [M+H]+
m/z	relative intensity	assigned
65.0385	28	C5H5+
69.0698	10	C5H9+
77.0386	31	C6H5+
78.0464	12	C6H6+
79.054	36	C6H7+
81.0698	12	C6H9+
83.0291	36	C5H4F+
89.0384	26	C7H5+
90.0465	25	C7H6+
91.0542	99	C7H7+
95.0492	31	C6H7O+
99.0228	23	C8H3+
105.0448	16	C6H5N2+
105.0699	15	C8H9+
109.0448	999	C7H6F+
115.054	37	C9H7+
117.0699	11	C9H9+
118.065	56	C8H8N+
119.029	27	C8H4F+
127.0351	10	C7H5F2+
133.0445	47	C9H6F+
137.0394	12	C8H6FO+
139.0353	61	C8H5F2+
146.0599	11	C9H8NO+
147.0352	96	C8H4FN2+
159.0415	508	C8H6F3+
202.0776	146	C16H10+
203.0832	49	C8H12FN2O3+
