Mass spectrum: Chlorprothixene; LC-ESI-QFT; MS2; CE: 150%; R=17500; [M+H]+
Name: Chlorprothixene
Name: 3-(2-chlorothioxanthen-9-ylidene)-N,N-dimethylpropan-1-amine
Formula: C18H18ClNS
Exact mass: 315.084848256
SMILES: CN(C)CCC=C1C2=CC=CC=C2SC3=C1C=C(C=C3)Cl
InChI: InChI=1S/C18H18ClNS/c1-20(2)11-5-7-14-15-6-3-4-8-17(15)21-18-10-9-13(19)12-16(14)18/h3-4,6-10,12H,5,11H2,1-2H3
Instrument: Exploris 240 Orbitrap Thermo Scientific
Instrument type: LC-ESI-QFT
Ms type: MS2
Ion mode: POSITIVE
Ionization: ESI
Fragmentation mode: HCD
Collision energy: 150 % (nominal)
Resolution: 17500
Column name: XBridge C18 3.5um, 2.1x50mm, Waters
Retention time: 10.058 min
Base peak: 316.0919
Precursor m/z: 316.0921
Precursor type: [M+H]+
m/z	relative intensity	assigned
56.0497	29	C3H6N+
58.0651	386	C3H8N+
68.0496	58	C4H6N+
68.9794	58	C3HS+
70.0651	445	C4H8N+
77.0386	55	C6H5+
84.0808	255	C5H10N+
102.0467	57	C8H6+
115.0543	92	C9H7+
128.0619	53	C10H8+
150.0467	86	C12H6+
151.054	242	C12H7+
152.062	999	C12H8+
163.0542	220	C13H7+
164.0621	285	C13H8+
165.0699	425	C13H9+
169.011	36	C11H5S+
169.0648	109	C9H12ClN+
176.0619	623	C14H8+
177.0697	79	C14H9+
178.0781	89	C14H10+
187.054	68	C15H7+
188.0617	56	C15H8+
189.0697	697	C15H9+
195.0264	422	C13H7S+
196.0345	62	C13H8S+
199.0306	291	C13H8Cl+
200.0622	131	C16H8+
201.0695	144	C16H9+
202.0777	840	C16H10+
208.0341	193	C14H8S+
219.0262	274	C15H7S+
220.0349	258	C15H8S+
221.0419	674	C15H9S+
232.0346	108	C16H8S+
233.0419	114	C16H9S+
234.05	331	C16H10S+
255.0038	74	C15H8ClS+
