Mass spectrum: Trimetazidine; LC-ESI-QFT; MS2; CE: 50%; R=15000; [M+H]+
Name: Trimetazidine
Name: 1-[(2,3,4-trimethoxyphenyl)methyl]piperazine
Formula: C14H22N2O3
Exact mass: 266.1630426
SMILES: COC1=C(C(=C(C=C1)CN2CCNCC2)OC)OC
InChI: InChI=1S/C14H22N2O3/c1-17-12-5-4-11(13(18-2)14(12)19-3)10-16-8-6-15-7-9-16/h4-5,15H,6-10H2,1-3H3
Instrument: Exploris 240 Thermo Scientific
Instrument type: LC-ESI-QFT
Ms type: MS2
Ion mode: POSITIVE
Ionization: ESI
Fragmentation mode: HCD
Collision energy: 50 % (nominal)
Resolution: 15000
Column name: XBridge C18 3.5um, 2.1x50mm, Waters
Retention time: 1.902 min
Base peak: 267.1699
Precursor m/z: 267.1703
Precursor type: [M+H]+
m/z	relative intensity	assigned
65.0385	124	C5H5+
67.0544	46	C5H7+
77.0386	24	C6H5+
78.0464	125	C6H6+
79.0543	44	C6H7+
80.0622	26	C6H8+
91.0542	748	C7H7+
93.0699	38	C7H9+
95.0492	73	C6H7O+
105.0337	58	C7H5O+
106.0412	110	C7H6O+
107.0491	63	C7H7O+
108.0568	98	C7H8O+
109.0649	34	C7H9O+
119.0602	32	C7H7N2+
121.0283	197	C7H5O2+
121.0647	27	C8H9O+
123.0439	54	C7H7O2+
123.0807	33	C8H11O+
135.0439	401	C8H7O2+
136.0518	641	C8H8O2+
137.06	23	C8H9O2+
151.0389	500	C8H7O3+
165.0547	377	C9H9O3+
166.0623	999	C9H10O3+
