Mass spectrum: 3-Desmethyltrimethoprim; LC-ESI-QFT; MS2; CE: 90%; R=17500; [M+H]+
Name: 3-Desmethyltrimethoprim
Name: 5-[(2,4-diaminopyrimidin-5-yl)methyl]-2,3-dimethoxyphenol
Formula: C13H16N4O3
Exact mass: 276.1222404
SMILES: COC1=CC(=CC(=C1OC)O)CC2=CN=C(N=C2N)N
InChI: InChI=1S/C13H16N4O3/c1-19-10-5-7(4-9(18)11(10)20-2)3-8-6-16-13(15)17-12(8)14/h4-6,18H,3H2,1-2H3,(H4,14,15,16,17)
Instrument: Exploris 240 Orbitrap Thermo Scientific
Instrument type: LC-ESI-QFT
Ms type: MS2
Ion mode: POSITIVE
Ionization: ESI
Fragmentation mode: HCD
Collision energy: 90 % (nominal)
Resolution: 17500
Column name: XBridge C18 3.5um, 2.1x50mm, Waters
Retention time: 2.604 min
Base peak: 277.1292
Precursor m/z: 277.1295
Precursor type: [M+H]+
m/z	relative intensity	assigned
60.0557	18	CH6N3+
68.0369	23	C3H4N2+
81.0447	323	C4H5N2+
83.0478	10	C3H5N3+
106.0399	19	C5H4N3+
110.0587	128	C4H6N4+
111.0668	38	C4H7N4+
121.0763	12	C7H9N2+
123.0665	999	C5H7N4+
124.0744	61	C5H8N4+
128.0495	14	C9H6N+
131.0606	14	C8H7N2+
145.0761	18	C9H9N2+
146.0716	14	C8H8N3+
147.0671	27	C7H7N4+
148.0744	100	C7H8N4+
149.0828	32	C7H9N4+
151.0394	34	C8H7O3+
156.0443	21	C10H6NO+
161.0823	37	C8H9N4+
187.0978	246	C10H11N4+
188.1063	30	C10H12N4+
191.093	23	C9H11N4O+
203.0929	27	C10H11N4O+
215.0935	51	C13H13NO2+
216.1012	21	C11H12N4O+
219.0877	296	C10H11N4O2+
231.0876	83	C11H11N4O2+
232.0956	15	C11H12N4O2+
233.1038	41	C11H13N4O2+
245.1034	27	C12H13N4O2+
261.0986	412	C12H13N4O3+
