Mass spectrum: Prosulfuron; LC-ESI-QFT; MS2; CE: 75%; R=15000; [M-H]-
Name: Prosulfuron
Name: 1-(4-methoxy-6-methyl-1,3,5-triazin-2-yl)-3-[2-(3,3,3-trifluoropropyl)phenyl]sulfonylurea
Formula: C15H16F3N5O4S
Exact mass: 419.0875097
SMILES: COC1=NC(C)=NC(NC(=O)NS(=O)(=O)C2=C(CCC(F)(F)F)C=CC=C2)=N1
InChI: InChI=1S/C15H16F3N5O4S/c1-9-19-12(22-14(20-9)27-2)21-13(24)23-28(25,26)11-6-4-3-5-10(11)7-8-15(16,17)18/h3-6H,7-8H2,1-2H3,(H2,19,20,21,22,23,24)
Instrument: Q Exactive Plus
Instrument type: LC-ESI-QFT
Ms type: MS2
Ion mode: NEGATIVE
Ionization: ESI
Fragmentation mode: HCD
Collision energy: 75 % (nominal)
Resolution: 15000
Column name: XBridge C18 3.5um, 2.1x50mm, Waters
Retention time: 9.096 min
Base peak: 418.0802
Precursor m/z: 418.0802
Precursor type: [M-H]-
Precursor intensity: 208027047.98
m/z	relative intensity	assigned
55.0301	142	C2H3N2-
65.0145	149	C3HN2-
66.0097	275	C2N3-
81.0332	27	C3H3N3-
82.0411	202	C3H4N3-
98.0359	17	C3H4N3O-
102.0348	19	C7H4N-
107.0364	630	C4H3N4-
109.052	69	C4H5N4-
124.039	86	C4H4N4O-
125.0469	39	C4H5N4O-
139.0625	999	C5H7N4O-
