Mass spectrum: Sulfurol; LC-ESI-QFT; MS2; CE: 120%; R=17500; [M+H]+
Name: Sulfurol
Name: 4-Methyl-5-thiazoleethanol
Name: 2-(4-methyl-1,3-thiazol-5-yl)ethanol
Formula: C6H9NOS
Exact mass: 143.0404849
SMILES: CC1=C(SC=N1)CCO
InChI: InChI=1S/C6H9NOS/c1-5-6(2-3-8)9-4-7-5/h4,8H,2-3H2,1H3
Instrument: Exploris 240 Orbitrap Thermo Scientific
Instrument type: LC-ESI-QFT
Ms type: MS2
Ion mode: POSITIVE
Ionization: ESI
Fragmentation mode: HCD
Collision energy: 120 % (nominal)
Resolution: 17500
Column name: XBridge C18 3.5um, 2.1x50mm, Waters
Retention time: 1.742 min
Base peak: 144.0476
Precursor m/z: 144.0478
Precursor type: [M+H]+
m/z	relative intensity	assigned
42.0339	27	C2H4N+
44.9794	14	CHS+
46.9948	4	CH3S+
53.0385	16	C4H5+
54.0338	6	C3H4N+
55.0417	26	C3H5N+
55.0542	29	C4H7+
58.995	36	C2H3S+
65.0386	96	C5H5+
66.0463	3	C5H6+
68.0495	6	C4H6N+
69.0574	12	C4H7N+
70.995	137	C3H3S+
72.0028	89	C3H4S+
73.0106	7	C3H5S+
80.0495	92	C5H6N+
81.0572	9	C5H7N+
84.003	5	C4H4S+
85.0107	35	C4H5S+
86.0185	51	C4H6S+
87.0264	5	C4H7S+
96.0027	4	C5H4S+
97.0105	8	C5H5S+
98.006	20	C4H4NS+
99.0264	39	C5H7S+
112.0215	424	C5H6NS+
113.0293	999	C5H7NS+
114.0371	6	C5H8NS+
126.0371	95	C6H8NS+
144.0479	24	C6H10NOS+
