Mass spectrum: Letrozole; LC-ESI-QFT; MS2; CE: 70%; R=15000; [M+H]+
Name: Letrozole
Name: 4-[(4-cyanophenyl)-(1,2,4-triazol-1-yl)methyl]benzonitrile
Formula: C17H11N5
Exact mass: 285.1014454
SMILES: C1=CC(=CC=C1C#N)C(C2=CC=C(C=C2)C#N)N3C=NC=N3
InChI: InChI=1S/C17H11N5/c18-9-13-1-5-15(6-2-13)17(22-12-20-11-21-22)16-7-3-14(10-19)4-8-16/h1-8,11-12,17H
Instrument: Exploris 240 Thermo Scientific
Instrument type: LC-ESI-QFT
Ms type: MS2
Ion mode: POSITIVE
Ionization: ESI
Fragmentation mode: HCD
Collision energy: 70 % (nominal)
Resolution: 15000
Column name: XBridge C18 3.5um, 2.1x50mm, Waters
Retention time: 5.301 min
Base peak: 286.1083
Precursor m/z: 286.1087
Precursor type: [M+H]+
m/z	relative intensity	assigned
63.0228	267	C5H3+
64.0183	61	C4H2N+
87.023	63	C7H3+
88.0184	46	C6H2N+
89.0386	107	C7H5+
90.034	84	C6H4N+
113.0385	358	C9H5+
114.0342	83	C8H4N+
115.0544	91	C9H7+
126.0465	86	C10H6+
137.0385	166	C11H5+
138.0342	78	C10H4N+
139.0544	87	C11H7+
140.0494	552	C10H6N+
150.0462	194	C12H6+
162.0468	186	C13H6+
163.0543	767	C13H7+
164.0492	557	C12H6N+
175.0418	68	C13H5N+
177.058	45	C13H7N+
188.0494	999	C14H6N+
190.065	222	C14H8N+
202.0777	767	C16H10+
215.06	207	C15H7N2+
