Mass spectrum: Tepraloxydim; LC-ESI-QFT; MS2; CE: 150%; R=15000; [M+H]+
Name: Tepraloxydim
Name: 2-Cyclohexen-1-one, 2-(1-((((2E)-3-chloro-2-propenyl)oxy)imino)propyl)-3-hydroxy-5-(tetrahydro-2H-pyran-4-yl)-
Name: 2-[N-[(E)-3-chloroprop-2-enoxy]-C-ethylcarbonimidoyl]-3-hydroxy-5-(oxan-4-yl)cyclohex-2-en-1-one
Formula: C17H24ClNO4
Exact mass: 341.1393859
SMILES: CCC(=C1C(=O)CC(CC1=O)C2CCOCC2)NOCC=CCl
InChI: InChI=1S/C17H24ClNO4/c1-2-14(19-23-7-3-6-18)17-15(20)10-13(11-16(17)21)12-4-8-22-9-5-12/h3,6,12-13,19H,2,4-5,7-11H2,1H3
Instrument: Q Exactive Plus
Instrument type: LC-ESI-QFT
Ms type: MS2
Ion mode: POSITIVE
Ionization: ESI
Fragmentation mode: HCD
Collision energy: 150 % (nominal)
Resolution: 15000
Column name: XBridge C18 3.5um, 2.1x50mm, Waters
Retention time: 9.984 min
Base peak: 342.147
Precursor m/z: 342.1467
Precursor type: [M+H]+
Precursor intensity: 337553619.09
m/z	relative intensity	assigned
50.0151	155	C4H2+
51.023	524	C4H3+
53.0022	72	C3HO+
53.0386	493	C4H5+
54.0339	116	C3H4N+
55.0178	96	C3H3O+
56.0495	280	C3H6N+
63.0229	47	C5H3+
65.0386	660	C5H5+
66.0339	87	C4H4N+
67.0417	143	C4H5N+
67.0542	137	C5H7+
68.0131	60	C3H2NO+
68.0495	230	C4H6N+
69.0334	44	C4H5O+
74.9996	174	C3H4Cl+
77.0385	251	C6H5+
78.0464	88	C6H6+
79.0542	244	C6H7+
80.0495	255	C5H6N+
81.0572	58	C5H7N+
82.065	96	C5H8N+
89.0386	78	C7H5+
91.0543	606	C7H7+
92.0496	48	C6H6N+
93.0573	171	C6H7N+
94.0653	101	C6H8N+
95.0492	999	C6H7O+
96.0444	257	C5H6NO+
102.0464	40	C8H6+
103.0542	194	C8H7+
104.0494	32	C7H6N+
107.0489	28	C7H7O+
108.0809	21	C7H10N+
115.0542	221	C9H7+
117.0573	61	C8H7N+
128.0622	78	C10H8+
130.0649	34	C9H8N+
