Mass spectrum: Trimetazidine; LC-ESI-QFT; MS2; CE: 60%; R=15000; [M+H]+
Name: Trimetazidine
Name: 1-[(2,3,4-trimethoxyphenyl)methyl]piperazine
Formula: C14H22N2O3
Exact mass: 266.1630426
SMILES: COC1=C(C(=C(C=C1)CN2CCNCC2)OC)OC
InChI: InChI=1S/C14H22N2O3/c1-17-12-5-4-11(13(18-2)14(12)19-3)10-16-8-6-15-7-9-16/h4-5,15H,6-10H2,1-3H3
Instrument: Exploris 240 Thermo Scientific
Instrument type: LC-ESI-QFT
Ms type: MS2
Ion mode: POSITIVE
Ionization: ESI
Fragmentation mode: HCD
Collision energy: 60 % (nominal)
Resolution: 15000
Column name: XBridge C18 3.5um, 2.1x50mm, Waters
Retention time: 1.902 min
Base peak: 267.1699
Precursor m/z: 267.1703
Precursor type: [M+H]+
m/z	relative intensity	assigned
51.0231	36	C4H3+
53.0386	48	C4H5+
65.0385	999	C5H5+
67.0544	79	C5H7+
77.0384	60	C6H5+
78.0464	472	C6H6+
79.0541	142	C6H7+
80.0623	23	C6H8+
91.0542	838	C7H7+
93.0337	46	C6H5O+
95.0491	184	C6H7O+
105.0337	200	C7H5O+
105.0449	82	C6H5N2+
106.0413	91	C7H6O+
107.0491	89	C7H7O+
108.0571	58	C7H8O+
121.0284	453	C7H5O2+
123.0442	63	C7H7O2+
135.0441	627	C8H7O2+
136.0517	144	C8H8O2+
151.0389	250	C8H7O3+
165.0548	235	C9H9O3+
166.062	73	C9H10O3+
