Mass spectrum: Lisinopril; LC-ESI-QFT; MS2; CE: 30%; R=15000; [M+H]+
Name: Lisinopril
Name: N2-(1-carboxy-3-phenylpropyl)lysylproline
Name: (2S)-1-[(2S)-6-azanyl-2-[[(2S)-1-oxidanyl-1-oxidanylidene-4-phenyl-butan-2-yl]amino]hexanoyl]pyrrolidine-2-carboxylic acid
Formula: C21H31N3O5
Exact mass: 405.2263711
SMILES: C1CC(N(C1)C(=O)C(CCCCN)NC(CCC2=CC=CC=C2)C(=O)O)C(=O)O
InChI: InChI=1S/C21H31N3O5/c22-13-5-4-9-16(19(25)24-14-6-10-18(24)21(28)29)23-17(20(26)27)12-11-15-7-2-1-3-8-15/h1-3,7-8,16-18,23H,4-6,9-14,22H2,(H,26,27)(H,28,29)
Instrument: Q Exactive
Instrument type: LC-ESI-QFT
Ms type: MS2
Ion mode: POSITIVE
Ionization: ESI
Fragmentation mode: HCD
Collision energy: 30 % (nominal)
Resolution: 15000
Column name: XBridge C18 3.5um, 2.1x50mm, Waters
Retention time: 3.547 min
Base peak: 406.2339
Precursor m/z: 406.2336
Precursor type: [M+H]+
Precursor intensity: 585202611.16
m/z	relative intensity	assigned
84.0809	999	C5H10N+
116.0706	13	C5H10NO2+
200.143	16	C14H18N+
246.149	237	C15H20NO2+
263.1755	46	C15H23N2O2+
309.1807	63	C16H25N2O4+
360.2286	38	C20H30N3O3+
406.2339	78	C21H32N3O5+
