Mass spectrum: Tebuconazole; LC-ESI-QFT; MS2; CE: 150%; R=15000; [M+H]+
Name: Tebuconazole
Name: 1-(4-chlorophenyl)-4,4-dimethyl-3-(1,2,4-triazol-1-ylmethyl)pentan-3-ol
Formula: C16H22ClN3O
Exact mass: 307.14514
SMILES: CC(C)(C)C(O)(CCC1=CC=C(Cl)C=C1)CN1C=NC=N1
InChI: InChI=1S/C16H22ClN3O/c1-15(2,3)16(21,10-20-12-18-11-19-20)9-8-13-4-6-14(17)7-5-13/h4-7,11-12,21H,8-10H2,1-3H3
Instrument: Q Exactive Plus
Instrument type: LC-ESI-QFT
Ms type: MS2
Ion mode: POSITIVE
Ionization: ESI
Fragmentation mode: HCD
Collision energy: 150 % (nominal)
Resolution: 15000
Column name: XBridge C18 3.5um, 2.1x50mm, Waters
Retention time: 11.585 min
Base peak: 308.1526
Precursor m/z: 308.1524
Precursor type: [M+H]+
Precursor intensity: 754606480.66
m/z	relative intensity	assigned
59.0491	18	C3H7O+
63.0229	51	C5H3+
65.0386	20	C5H5+
70.04	999	C2H4N3+
72.984	28	C3H2Cl+
89.0386	138	C7H5+
90.0465	45	C7H6+
98.9997	61	C5H4Cl+
115.0543	87	C9H7+
125.0153	38	C7H6Cl+
128.0619	10	C10H8+
