Mass spectrum: 6-O-Desmethyl-mycophenolic acid; LC-ESI-QFT; MS2; CE: 60%; R=17500; [M-H]-
Name: 6-O-Desmethyl-mycophenolic acid
Name: 6-(4,6-dihydroxy-7-methyl-3-oxo-1H-2-benzofuran-5-yl)-4-methylhex-4-enoic acid
Formula: C16H18O6
Exact mass: 306.1103383
SMILES: CC1=C2COC(=O)C2=C(C(=C1O)CC=C(C)CCC(=O)O)O
InChI: InChI=1S/C16H18O6/c1-8(4-6-12(17)18)3-5-10-14(19)9(2)11-7-22-16(21)13(11)15(10)20/h3,19-20H,4-7H2,1-2H3,(H,17,18)
Instrument: Exploris 240 Orbitrap Thermo Scientific
Instrument type: LC-ESI-QFT
Ms type: MS2
Ion mode: NEGATIVE
Ionization: ESI
Fragmentation mode: HCD
Collision energy: 60 % (nominal)
Resolution: 17500
Column name: XBridge C18 3.5um, 2.1x50mm, Waters
Retention time: 6.307 min
Base peak: 305.1029
Precursor m/z: 305.1031
Precursor type: [M-H]-
m/z	relative intensity	assigned
59.014	66	C2H3O2-
95.0502	50	C6H7O-
105.0709	56	C8H9-
107.0501	49	C7H7O-
119.0503	37	C8H7O-
120.0579	106	C8H8O-
121.0659	639	C8H9O-
123.0817	66	C8H11O-
134.0374	117	C8H6O2-
135.0455	92	C8H7O2-
148.0528	550	C9H8O2-
149.0611	199	C9H9O2-
160.0532	45	C10H8O2-
161.0609	205	C10H9O2-
161.0971	59	C11H13O-
162.0688	114	C10H10O2-
173.0609	85	C11H9O2-
173.1339	46	C13H17-
178.0274	174	C9H6O4-
179.0347	248	C9H7O4-
187.0771	68	C12H11O2-
189.1284	223	C13H17O-
191.0349	630	C10H7O4-
192.0428	837	C10H8O4-
193.0508	91	C10H9O4-
199.113	31	C14H15O-
203.0352	100	C11H7O4-
205.0507	163	C11H9O4-
217.1236	263	C14H17O2-
233.0823	63	C13H13O4-
243.1017	26	C15H15O3-
261.1131	999	C15H17O4-
