Mass spectrum: Maleic hydrazide; LC-ESI-QFT; MS2; CE: 150%; R=15000; [M+H]+
Name: Maleic hydrazide
Name: 1,2-dihydropyridazine-3,6-dione
Formula: C4H4N2O2
Exact mass: 112.0272774
SMILES: C1=CC(=O)NNC1=O
InChI: InChI=1S/C4H4N2O2/c7-3-1-2-4(8)6-5-3/h1-2H,(H,5,7)(H,6,8)
Instrument: Exploris 240 Thermo Scientific
Instrument type: LC-ESI-QFT
Ms type: MS2
Ion mode: POSITIVE
Ionization: ESI
Fragmentation mode: HCD
Collision energy: 150 % (nominal)
Resolution: 15000
Column name: XBridge C18 3.5um, 2.1x50mm, Waters
Retention time: 1.136 min
Base peak: 113.0342
Precursor m/z: 113.0346
Precursor type: [M+H]+
m/z	relative intensity	assigned
40.0181	830	C2H2N+
42.0338	105	C2H4N+
43.029	90	CH3N2+
53.0021	999	C3HO+
53.0134	68	C2HN2+
54.0099	308	C3H2O+
55.0178	670	C3H3O+
57.0447	261	C2H5N2+
59.0241	52	CH3N2O+
67.029	745	C3H3N2+
68.013	275	C3H2NO+
69.0082	158	C2HN2O+
84.0205	70	C4H4O2+
85.0396	240	C3H5N2O+
113.0344	261	C4H5N2O2+
