Mass spectrum: Melatonin; LC-ESI-QFT; MS2; CE: 70%; R=15000; [M+H]+
Name: Melatonin
Name: N-[2-(5-methoxy-1H-indol-3-yl)ethyl]ethanamide
Formula: C13H16N2O2
Exact mass: 232.1211778
SMILES: CC(=O)NCCC1=CNC2=C1C=C(C=C2)OC
InChI: InChI=1S/C13H16N2O2/c1-9(16)14-6-5-10-8-15-13-4-3-11(17-2)7-12(10)13/h3-4,7-8,15H,5-6H2,1-2H3,(H,14,16)
Instrument: Exploris 240 Thermo Scientific
Instrument type: LC-ESI-QFT
Ms type: MS2
Ion mode: POSITIVE
Ionization: ESI
Fragmentation mode: HCD
Collision energy: 70 % (nominal)
Resolution: 15000
Column name: XBridge C18 3.5um, 2.1x50mm, Waters
Retention time: 4.312 min
Base peak: 233.128
Precursor m/z: 233.1285
Precursor type: [M+H]+
m/z	relative intensity	assigned
53.0385	15	C4H5+
65.0387	29	C5H5+
77.0385	30	C6H5+
78.0464	117	C6H6+
89.0385	63	C7H5+
90.0464	36	C7H6+
91.0544	35	C7H7+
95.0492	79	C6H7O+
102.0465	12	C8H6+
103.0542	249	C8H7+
104.0494	96	C7H6N+
104.0622	24	C8H8+
105.0447	41	C6H5N2+
105.0573	28	C7H7N+
115.0542	142	C9H7+
116.0497	21	C8H6N+
117.0574	47	C8H7N+
130.0651	999	C9H8N+
131.0491	16	C9H7O+
131.073	97	C9H9N+
143.0726	34	C10H9N+
146.0598	13	C9H8NO+
158.0596	12	C10H8NO+
