Mass spectrum: Butralin; LC-ESI-QFT; MS2; CE: 75%; R=15000; [M+H]+
Name: Butralin
Name: N-butan-2-yl-4-tert-butyl-2,6-dinitroaniline
Formula: C14H21N3O4
Exact mass: 295.1532062
SMILES: CCC(C)NC1=C(C=C(C=C1[N+](=O)[O-])C(C)(C)C)[N+](=O)[O-]
InChI: InChI=1S/C14H21N3O4/c1-6-9(2)15-13-11(16(18)19)7-10(14(3,4)5)8-12(13)17(20)21/h7-9,15H,6H2,1-5H3
Instrument: Exploris 240 Thermo Scientific
Instrument type: LC-ESI-QFT
Ms type: MS2
Ion mode: POSITIVE
Ionization: ESI
Fragmentation mode: HCD
Collision energy: 75 % (nominal)
Resolution: 15000
Column name: XBridge C18 3.5um, 2.1x50mm, Waters
Retention time: 14.802 min
Base peak: 296.1602
Precursor m/z: 296.1605
Precursor type: [M+H]+
m/z	relative intensity	assigned
53.0385	26	C4H5+
57.0699	999	C4H9+
59.0493	85	C3H7O+
65.0385	26	C5H5+
79.0544	165	C6H7+
80.0495	47	C5H6N+
81.07	33	C6H9+
91.0543	149	C7H7+
93.0699	51	C7H9+
94.0655	63	C6H8N+
95.0493	63	C6H7O+
103.0543	95	C8H7+
104.0497	86	C7H6N+
105.0449	42	C6H5N2+
105.07	170	C8H9+
108.0809	49	C7H10N+
116.0496	84	C8H6N+
118.0653	104	C8H8N+
119.0607	119	C7H7N2+
120.0809	46	C8H10N+
130.0652	166	C9H8N+
132.0685	74	C8H8N2+
134.0605	76	C8H8NO+
143.0609	65	C9H7N2+
149.0711	53	C8H9N2O+
159.0917	150	C10H11N2+
161.0706	163	C9H9N2O+
178.0735	325	C9H10N2O2+
190.0616	67	C9H8N3O2+
208.0717	768	C9H10N3O3+
222.087	116	C10H12N3O3+
