Mass spectrum: Dorzolamide; LC-ESI-QFT; MS2; CE: 60%; R=15000; [M+H]+
Name: Dorzolamide
Name: (4S,6S)-4-(ethylamino)-6-methyl-7,7-bis(oxidanylidene)-5,6-dihydro-4H-thieno[2,3-b]thiopyran-2-sulfonamide
Name: 4-(ethylamino)-6-methyl-7,7-dioxo-5,6-dihydro-4H-thieno[2,3-b]thiopyran-2-sulfonamide
Formula: C10H16N2O4S3
Exact mass: 324.02722
SMILES: CCNC1CC(S(=O)(=O)C2=C1C=C(S2)S(=O)(=O)N)C
InChI: InChI=1S/C10H16N2O4S3/c1-3-12-8-4-6(2)18(13,14)10-7(8)5-9(17-10)19(11,15)16/h5-6,8,12H,3-4H2,1-2H3,(H2,11,15,16)
Instrument: Exploris 240 Thermo Scientific
Instrument type: LC-ESI-QFT
Ms type: MS2
Ion mode: POSITIVE
Ionization: ESI
Fragmentation mode: HCD
Collision energy: 60 % (nominal)
Resolution: 15000
Column name: XBridge C18 3.5um, 2.1x50mm, Waters
Retention time: 1.509 min
Base peak: 325.0341
Precursor m/z: 325.0345
Precursor type: [M+H]+
m/z	relative intensity	assigned
51.0229	15	C4H3+
63.9852	28	H2NOS+
65.0386	199	C5H5+
68.9793	39	C3HS+
70.995	36	C3H3S+
79.0543	49	C6H7+
82.995	15	C4H3S+
84.0028	59	C4H4S+
89.0386	12	C7H5+
91.0543	999	C7H7+
94.995	116	C5H3S+
95.0492	24	C6H7O+
102.0465	45	C8H6+
121.0108	53	C7H5S+
123.0264	28	C7H7S+
126.9671	72	C5H3S2+
127.975	15	C5H4S2+
134.0185	304	C8H6S+
135.0263	220	C8H7S+
138.9671	75	C6H3S2+
151.0211	15	C8H7OS+
152.9831	23	C7H5S2+
154.9618	43	C6H3OS2+
202.0777	201	C8H14N2O2S+
