Mass spectrum: Flurprimidol; LC-ESI-QFT; MS2; CE: 180%; R=15000; [M+H]+
Name: Flurprimidol
Name: 2-methyl-1-pyrimidin-5-yl-1-[4-(trifluoromethoxy)phenyl]propan-1-ol
Formula: C15H15F3N2O2
Exact mass: 312.1085624
SMILES: CC(C)C(C1=CC=C(C=C1)OC(F)(F)F)(C2=CN=CN=C2)O
InChI: InChI=1S/C15H15F3N2O2/c1-10(2)14(21,12-7-19-9-20-8-12)11-3-5-13(6-4-11)22-15(16,17)18/h3-10,21H,1-2H3
Instrument: Exploris 240 Thermo Scientific
Instrument type: LC-ESI-QFT
Ms type: MS2
Ion mode: POSITIVE
Ionization: ESI
Fragmentation mode: HCD
Collision energy: 180 % (nominal)
Resolution: 15000
Column name: XBridge C18 3.5um, 2.1x50mm, Waters
Retention time: 9.380 min
Base peak: 313.1155
Precursor m/z: 313.1158
Precursor type: [M+H]+
m/z	relative intensity	assigned
51.0229	80	C4H3+
52.0182	96	C3H2N+
53.0023	50	C3HO+
53.0386	21	C4H5+
54.0338	232	C3H4N+
63.023	83	C5H3+
65.0386	71	C5H5+
68.9947	217	CF3+
74.0151	134	C6H2+
75.0229	999	C6H3+
77.0386	102	C6H5+
81.0447	128	C4H5N2+
89.0385	82	C7H5+
90.0465	82	C7H6+
91.0543	57	C7H7+
92.0256	85	C6H4O+
95.0292	116	C6H4F+
95.0492	86	C6H7O+
102.0466	43	C8H6+
105.0446	27	C6H5N2+
113.0397	119	C6H6FO+
117.0572	166	C8H7N+
123.0354	221	C6H4FN2+
128.0622	20	C10H8+
