Mass spectrum: Sulfentrazone; LC-ESI-QFT; MS2; CE: 150%; R=15000; [M+H]+
Name: Sulfentrazone
Name: N-[2,4-dichloro-5-[4-(difluoromethyl)-3-methyl-5-oxo-1,2,4-triazol-1-yl]phenyl]methanesulfonamide
Formula: C11H10Cl2F2N4O3S
Exact mass: 385.981873
SMILES: CC1=NN(C(=O)N1C(F)F)C1=CC(NS(C)(=O)=O)=C(Cl)C=C1Cl
InChI: InChI=1S/C11H10Cl2F2N4O3S/c1-5-16-19(11(20)18(5)10(14)15)9-4-8(17-23(2,21)22)6(12)3-7(9)13/h3-4,10,17H,1-2H3
Instrument: Q Exactive Plus
Instrument type: LC-ESI-QFT
Ms type: MS2
Ion mode: POSITIVE
Ionization: ESI
Fragmentation mode: HCD
Collision energy: 150 % (nominal)
Resolution: 15000
Column name: XBridge C18 3.5um, 2.1x50mm, Waters
Retention time: 6.517 min
Base peak: 386.9893
Precursor m/z: 386.9891
Precursor type: [M+H]+
Precursor intensity: 79056822.8
m/z	relative intensity	assigned
50.0151	23	C4H2+
51.0041	12	CHF2+
52.0182	49	C3H2N+
60.984	17	C2H2Cl+
61.9792	355	CHClN+
64.0181	33	C4H2N+
72.9839	68	C3H2Cl+
74.0034	12	C2HFNO+
75.0103	999	C5HN+
76.0181	590	C5H2N+
77.0132	10	C4HN2+
82.945	55	CHCl2+
83.9761	85	C4HCl+
84.9839	173	C4H2Cl+
85.9791	46	C3HClN+
89.9974	11	C5NO+
97.9791	107	C4HClN+
99.9951	29	C4H3ClN+
100.0055	68	C6N2+
101.0134	139	C6HN2+
103.029	35	C6H3N2+
106.945	29	C3HCl2+
108.9712	19	C5ClN+
109.9792	758	C5HClN+
111.9948	202	C5H3ClN+
118.945	24	C4HCl2+
127.9896	50	ClFH2N4O+
139.0057	36	C6H4ClN2+
147.9716	11	C5H4Cl2N+
154.0165	25	C6H5ClN3+
