Mass spectrum: Hydroxytorasemide; LC-ESI-QFT; MS2; CE: 75%; R=17500; [M+H]+
Name: Hydroxytorasemide
Name: Torasemide metabolite M1
Name: 1-[4-[3-(hydroxymethyl)anilino]pyridin-3-yl]sulfonyl-3-propan-2-ylurea
Formula: C16H20N4O4S
Exact mass: 364.1205261
SMILES: CC(C)NC(=O)NS(=O)(=O)C1=C(C=CN=C1)NC2=CC=CC(=C2)CO
InChI: InChI=1S/C16H20N4O4S/c1-11(2)18-16(22)20-25(23,24)15-9-17-7-6-14(15)19-13-5-3-4-12(8-13)10-21/h3-9,11,21H,10H2,1-2H3,(H,17,19)(H2,18,20,22)
Instrument: Exploris 240 Orbitrap Thermo Scientific
Instrument type: LC-ESI-QFT
Ms type: MS2
Ion mode: POSITIVE
Ionization: ESI
Fragmentation mode: HCD
Collision energy: 75 % (nominal)
Resolution: 17500
Column name: XBridge C18 3.5um, 2.1x50mm, Waters
Retention time: 4.126 min
Base peak: 365.1276
Precursor m/z: 365.1278
Precursor type: [M+H]+
m/z	relative intensity	assigned
65.0384	6	C5H5+
67.0416	15	C4H5N+
81.0448	7	C4H5N2+
89.0387	6	C7H5+
98.0059	18	C4H4NS+
115.0543	73	C9H7+
125.0169	83	C5H5N2S+
127.0325	8	C5H7N2S+
128.0494	11	C9H6N+
137.0166	22	C6H5N2S+
142.0653	52	C10H8N+
152.0039	44	C6H4N2OS+
153.012	9	C6H5N2OS+
154.0652	37	C11H8N+
155.0604	10	C10H7N2+
156.0681	14	C10H8N2+
168.0683	195	C11H8N2+
169.0761	999	C11H9N2+
180.0687	9	C12H8N2+
181.0761	405	C12H9N2+
182.084	91	C12H10N2+
184.0634	24	C11H8N2O+
185.071	29	C11H9N2O+
188.0402	10	C10H8N2S+
189.048	53	C10H9N2S+
197.071	77	C12H9N2O+
199.0868	114	C12H11N2O+
200.0404	11	C11H8N2S+
205.0426	10	C10H9N2OS+
216.0355	36	C11H8N2OS+
217.0425	24	C11H9N2OS+
228.0359	14	C12H8N2OS+
233.0377	78	C11H9N2O2S+
245.0382	20	C12H9N2O2S+
263.0482	14	C12H11N2O3S+
280.075	26	C12H14N3O3S+
