Mass spectrum: Chlorpyrifos; LC-ESI-QFT; MS2; CE: 45%; R=15000; [M+H]+
Name: Chlorpyrifos
Name: diethoxy-sulfanylidene-(3,5,6-trichloropyridin-2-yl)oxy-lambda5-phosphane
Formula: C9H11Cl3NO3PS
Exact mass: 348.9262839
SMILES: CCOP(=S)(OCC)OC1=NC(Cl)=C(Cl)C=C1Cl
InChI: InChI=1S/C9H11Cl3NO3PS/c1-3-14-17(18,15-4-2)16-9-7(11)5-6(10)8(12)13-9/h5H,3-4H2,1-2H3
Instrument: Q Exactive Plus
Instrument type: LC-ESI-QFT
Ms type: MS2
Ion mode: POSITIVE
Ionization: ESI
Fragmentation mode: HCD
Collision energy: 45 % (nominal)
Resolution: 15000
Column name: XBridge C18 3.5um, 2.1x50mm, Waters
Retention time: 14.392 min
Base peak: 349.9338
Precursor m/z: 349.9336
Precursor type: [M+H]+
Precursor intensity: 86352622.98
m/z	relative intensity	assigned
96.9508	92	H2O2PS+
114.9613	999	H4O3PS+
124.9821	15	C2H6O2PS+
179.9613	21	C5H4Cl2NO2+
197.9274	711	C5H3Cl3NO+
213.9046	97	C5H3Cl3NS+
275.8604	27	C5H2Cl3NO2PS+
293.8709	18	C5H4Cl3NO3PS+
