Mass spectrum: Bifenazate; LC-ESI-QFT; MS2; CE: 60%; R=15000; [M+H]+
Name: Bifenazate
Name: propan-2-yl N-(2-methoxy-5-phenylanilino)carbamate
Formula: C17H20N2O3
Exact mass: 300.1473925
SMILES: CC(C)OC(=O)NNC1=C(C=CC(=C1)C2=CC=CC=C2)OC
InChI: InChI=1S/C17H20N2O3/c1-12(2)22-17(20)19-18-15-11-14(9-10-16(15)21-3)13-7-5-4-6-8-13/h4-12,18H,1-3H3,(H,19,20)
Instrument: Exploris 240 Thermo Scientific
Instrument type: LC-ESI-QFT
Ms type: MS2
Ion mode: POSITIVE
Ionization: ESI
Fragmentation mode: HCD
Collision energy: 60 % (nominal)
Resolution: 15000
Column name: XBridge C18 3.5um, 2.1x50mm, Waters
Retention time: 9.760 min
Base peak: 198.091
Precursor m/z: 301.1547
Precursor type: [M+H]+
m/z	relative intensity	assigned
92.0493	56	C6H6N+
93.0571	41	C6H7N+
115.0542	11	C9H7+
128.0616	72	C10H8+
129.0699	28	C10H9+
141.0697	74	C11H9+
143.0853	93	C11H11+
152.0619	211	C12H8+
153.0697	581	C12H9+
155.073	45	C11H9N+
156.0804	30	C11H10N+
167.0728	107	C12H9N+
168.0807	170	C12H10N+
169.0649	15	C12H9O+
169.0884	121	C12H11N+
170.0962	999	C12H12N+
180.0801	15	C13H10N+
181.0756	16	C12H9N2+
184.0754	348	C12H10NO+
196.0753	48	C13H10NO+
198.0906	38	C13H12NO+
199.0991	94	C13H13NO+
