Mass spectrum: Benoxacor; LC-ESI-QFT; MS2; CE: 30%; R=15000; [M+H]+
Name: Benoxacor
Name: 2,2-dichloro-1-(3-methyl-2,3-dihydro-1,4-benzoxazin-4-yl)ethanone
Formula: C11H11Cl2NO2
Exact mass: 259.016684
SMILES: CC1COC2=CC=CC=C2N1C(=O)C(Cl)Cl
InChI: InChI=1S/C11H11Cl2NO2/c1-7-6-16-9-5-3-2-4-8(9)14(7)11(15)10(12)13/h2-5,7,10H,6H2,1H3
Instrument: Exploris 240 Thermo Scientific
Instrument type: LC-ESI-QFT
Ms type: MS2
Ion mode: POSITIVE
Ionization: ESI
Fragmentation mode: HCD
Collision energy: 30 % (nominal)
Resolution: 15000
Column name: XBridge C18 3.5um, 2.1x50mm, Waters
Retention time: 8.025 min
Base peak: 260.0237
Precursor m/z: 260.024
Precursor type: [M+H]+
m/z	relative intensity	assigned
59.0491	17	C3H7O+
120.0443	69	C7H6NO+
149.0834	575	C9H11NO+
150.0913	57	C9H12NO+
188.0704	34	C11H10NO2+
196.0519	36	C10H11ClNO+
213.9819	16	C9H6Cl2NO+
224.0475	35	C11H11ClNO2+
242.0134	27	C11H10Cl2NO+
260.0239	999	C11H12Cl2NO2+
