Mass spectrum: Tolclofos-methyl; LC-ESI-QFT; MS2; CE: 150%; R=15000; [M+H]+
Name: Tolclofos-methyl
Name: (2,6-dichloro-4-methylphenoxy)-dimethoxy-sulfanylidene-lambda5-phosphane
Formula: C9H11Cl2O3PS
Exact mass: 299.9543572
SMILES: COP(=S)(OC)OC1=C(Cl)C=C(C)C=C1Cl
InChI: InChI=1S/C9H11Cl2O3PS/c1-6-4-7(10)9(8(11)5-6)14-15(16,12-2)13-3/h4-5H,1-3H3
Instrument: Q Exactive Plus
Instrument type: LC-ESI-QFT
Ms type: MS2
Ion mode: POSITIVE
Ionization: ESI
Fragmentation mode: HCD
Collision energy: 150 % (nominal)
Resolution: 15000
Column name: XBridge C18 3.5um, 2.1x50mm, Waters
Retention time: 12.151 min
Base peak: 300.9617
Precursor m/z: 300.9616
Precursor type: [M+H]+
Precursor intensity: 57974677.45
m/z	relative intensity	assigned
50.0151	109	C4H2+
51.023	234	C4H3+
53.0022	26	C3HO+
53.0386	123	C4H5+
59.9664	41	COS+
62.9453	62	PS+
62.9995	40	CH4OP+
63.0229	29	C5H3+
65.0386	92	C5H5+
68.9793	17	C3HS+
72.9839	43	C3H2Cl+
74.0151	349	C6H2+
75.0229	999	C6H3+
76.0307	32	C6H4+
77.0385	138	C6H5+
78.9943	62	CH4O2P+
84.984	121	C4H2Cl+
86.9997	17	C4H4Cl+
89.0385	47	C7H5+
95.0492	420	C6H7O+
109.0106	42	C6H5S+
110.9996	49	C6H4Cl+
112.0075	278	C6H5Cl+
121.0106	15	C7H5S+
129.0104	38	C6H6ClO+
154.9719	10	C7H4ClS+
