Mass spectrum: 6-O-Desmethyl-mycophenolic acid; LC-ESI-QFT; MS2; CE: 30%; R=17500; [M+H]+
Name: 6-O-Desmethyl-mycophenolic acid
Name: 6-(4,6-dihydroxy-7-methyl-3-oxo-1H-2-benzofuran-5-yl)-4-methylhex-4-enoic acid
Formula: C16H18O6
Exact mass: 306.1103383
SMILES: CC1=C2COC(=O)C2=C(C(=C1O)CC=C(C)CCC(=O)O)O
InChI: InChI=1S/C16H18O6/c1-8(4-6-12(17)18)3-5-10-14(19)9(2)11-7-22-16(21)13(11)15(10)20/h3,19-20H,4-7H2,1-2H3,(H,17,18)
Instrument: Exploris 240 Orbitrap Thermo Scientific
Instrument type: LC-ESI-QFT
Ms type: MS2
Ion mode: POSITIVE
Ionization: ESI
Fragmentation mode: HCD
Collision energy: 30 % (nominal)
Resolution: 17500
Column name: XBridge C18 3.5um, 2.1x50mm, Waters
Retention time: 6.296 min
Base peak: 307.1173
Precursor m/z: 307.1176
Precursor type: [M+H]+
m/z	relative intensity	assigned
81.0698	7	C6H9+
97.0647	49	C6H9O+
109.0651	5	C7H9O+
181.0501	30	C9H9O4+
193.0495	999	C10H9O4+
209.0446	14	C10H9O5+
245.0811	7	C14H13O4+
261.1122	394	C15H17O4+
271.0966	100	C16H15O4+
289.1071	642	C16H17O5+
307.1177	123	C16H19O6+
