Mass spectrum: Azelastine; LC-ESI-QFT; MS2; CE: 30%; R=15000; [M+H]+
Name: Azelastine
Name: 4-[(4-chlorophenyl)methyl]-2-(1-methylazepan-4-yl)phthalazin-1-one
Formula: C22H24ClN3O
Exact mass: 381.1607901
SMILES: CN1CCCC(CC1)N2C(=O)C3=CC=CC=C3C(=N2)CC4=CC=C(C=C4)Cl
InChI: InChI=1S/C22H24ClN3O/c1-25-13-4-5-18(12-14-25)26-22(27)20-7-3-2-6-19(20)21(24-26)15-16-8-10-17(23)11-9-16/h2-3,6-11,18H,4-5,12-15H2,1H3
Instrument: Exploris 240 Thermo Scientific
Instrument type: LC-ESI-QFT
Ms type: MS2
Ion mode: POSITIVE
Ionization: ESI
Fragmentation mode: HCD
Collision energy: 30 % (nominal)
Resolution: 15000
Column name: XBridge C18 3.5um, 2.1x50mm, Waters
Retention time: 6.298 min
Base peak: 382.1677
Precursor m/z: 382.1681
Precursor type: [M+H]+
m/z	relative intensity	assigned
58.0651	385	C3H8N+
69.0699	11	C5H9+
70.0652	20	C4H8N+
79.0544	28	C6H7+
81.0699	93	C6H9+
84.0807	73	C5H10N+
112.112	999	C7H14N+
202.0776	74	C16H10+
271.0632	27	C15H12ClN2O+
