Mass spectrum: Tropicamide; LC-ESI-QFT; MS2; CE: 60%; R=15000; [M+H]+
Name: Tropicamide
Name: N-ethyl-3-hydroxy-2-phenyl-N-(pyridin-4-ylmethyl)propanamide
Formula: C17H20N2O2
Exact mass: 284.1524779
SMILES: CCN(CC1=CC=NC=C1)C(=O)C(CO)C2=CC=CC=C2
InChI: InChI=1S/C17H20N2O2/c1-2-19(12-14-8-10-18-11-9-14)17(21)16(13-20)15-6-4-3-5-7-15/h3-11,16,20H,2,12-13H2,1H3
Instrument: Exploris 240 Thermo Scientific
Instrument type: LC-ESI-QFT
Ms type: MS2
Ion mode: POSITIVE
Ionization: ESI
Fragmentation mode: HCD
Collision energy: 60 % (nominal)
Resolution: 15000
Column name: XBridge C18 3.5um, 2.1x50mm, Waters
Retention time: 3.452 min
Base peak: 285.1595
Precursor m/z: 285.1598
Precursor type: [M+H]+
m/z	relative intensity	assigned
56.0496	25	C3H6N+
58.0651	360	C3H8N+
79.0542	86	C6H7+
80.0495	686	C5H6N+
91.0542	207	C7H7+
92.0495	276	C6H6N+
93.0573	949	C6H7N+
94.0654	59	C6H8N+
103.0541	274	C8H7+
107.0604	858	C6H7N2+
108.0682	253	C6H8N2+
118.0653	89	C8H8N+
121.0648	347	C8H9O+
135.0917	999	C8H11N2+
136.0997	191	C8H12N2+
137.1074	288	C8H13N2+
146.0967	43	C10H12N+
176.0945	29	C10H12N2O+
182.0964	148	C13H12N+
226.1101	109	C14H14N2O+
255.1492	670	C16H19N2O+
285.1602	99	C17H21N2O2+
