Mass spectrum: Prazosin; LC-ESI-QFT; MS2; CE: 60%; R=17500; [M-H]-
Name: Prazosin
Name: [4-(4-amino-6,7-dimethoxyquinazolin-2-yl)piperazin-1-yl]-(furan-2-yl)methanone
Formula: C19H21N5O4
Exact mass: 383.159354152
SMILES: COC1=C(C=C2C(=C1)C(=NC(=N2)N3CCN(CC3)C(=O)C4=CC=CO4)N)OC
InChI: InChI=1S/C19H21N5O4/c1-26-15-10-12-13(11-16(15)27-2)21-19(22-17(12)20)24-7-5-23(6-8-24)18(25)14-4-3-9-28-14/h3-4,9-11H,5-8H2,1-2H3,(H2,20,21,22)
Instrument: Exploris 240 Orbitrap Thermo Scientific
Instrument type: LC-ESI-QFT
Ms type: MS2
Ion mode: NEGATIVE
Ionization: ESI
Fragmentation mode: HCD
Collision energy: 60 % (nominal)
Resolution: 17500
Column name: XBridge C18 3.5um, 2.1x50mm, Waters
Retention time: 4.825 min
Base peak: 382.152
Precursor m/z: 382.1521
Precursor type: [M-H]-
m/z	relative intensity	assigned
67.0191	83	C4H3O-
67.0304	51	C3H3N2-
81.0461	45	C4H5N2-
110.0248	518	C5H4NO2-
147.02	84	C7H3N2O2-
172.052	75	C9H6N3O-
187.0621	154	C9H7N4O-
201.0786	121	C10H9N4O-
202.063	53	C10H8N3O2-
213.0781	202	C11H9N4O-
214.0497	814	C10H6N4O2-
215.0575	964	C10H7N4O2-
229.0731	999	C11H9N4O2-
230.081	324	C11H10N4O2-
241.0732	540	C12H9N4O2-
243.0889	42	C12H11N4O2-
244.0964	61	C12H12N4O2-
256.0969	69	C13H12N4O2-
324.1097	262	C16H14N5O3-
352.1048	692	C17H14N5O4-
