Mass spectrum: Telmisartan O-acyl-glucuronide; LC-ESI-QFT; MS2; CE: 60%; R=17500; [M+H]+
Name: Telmisartan O-acyl-glucuronide
Name: 3,4,5-trihydroxy-6-[2-[4-[[4-methyl-6-(1-methylbenzimidazol-2-yl)-2-propylbenzimidazol-1-yl]methyl]phenyl]benzoyl]oxyoxane-2-carboxylic acid
Formula: C39H38N4O8
Exact mass: 690.2689642
SMILES: CCCC1=NC2=C(N1CC3=CC=C(C=C3)C4=CC=CC=C4C(=O)OC5C(C(C(C(O5)C(=O)O)O)O)O)C=C(C=C2C)C6=NC7=CC=CC=C7N6C
InChI: InChI=1S/C39H38N4O8/c1-4-9-30-41-31-21(2)18-24(36-40-27-12-7-8-13-28(27)42(36)3)19-29(31)43(30)20-22-14-16-23(17-15-22)25-10-5-6-11-26(25)38(49)51-39-34(46)32(44)33(45)35(50-39)37(47)48/h5-8,10-19,32-35,39,44-46H,4,9,20H2,1-3H3,(H,47,48)
Instrument: Exploris 240 Orbitrap Thermo Scientific
Instrument type: LC-ESI-QFT
Ms type: MS2
Ion mode: POSITIVE
Ionization: ESI
Fragmentation mode: HCD
Collision energy: 60 % (nominal)
Resolution: 17500
Column name: XBridge C18 3.5um, 2.1x50mm, Waters
Retention time: 6.944 min
Base peak: 346.1415
Precursor m/z: 691.2762
Precursor type: [M+H]+
m/z	relative intensity	assigned
152.0618	4	C12H8+
183.0804	4	C13H11O+
193.0648	134	C14H9O+
211.0754	122	C14H11O2+
262.1209	11	C16H14N4+
275.1286	36	C17H15N4+
276.1368	999	C17H16N4+
277.1393	9	C11H21N2O6+
288.1363	5	C18H16N4+
289.1447	191	C18H17N4+
303.1606	99	C19H19N4+
305.176	99	C19H21N4+
317.176	49	C20H21N4+
455.1847	14	C27H25N3O4+
467.1864	61	C31H23N4O+
471.1801	4	C30H23N4O2+
485.197	24	C31H25N4O2+
497.2336	553	C33H29N4O+
515.2447	56	C33H31N4O2+
