Mass spectrum: Linuron; LC-ESI-QFT; MS2; CE: 180%; R=15000; [M+H]+
Name: Linuron
Name: 3-(3,4-dichlorophenyl)-1-methoxy-1-methylurea
Formula: C9H10Cl2N2O2
Exact mass: 248.0119329
SMILES: CON(C)C(=O)NC1=CC=C(Cl)C(Cl)=C1
InChI: InChI=1S/C9H10Cl2N2O2/c1-13(15-2)9(14)12-6-3-4-7(10)8(11)5-6/h3-5H,1-2H3,(H,12,14)
Instrument: Q Exactive Plus
Instrument type: LC-ESI-QFT
Ms type: MS2
Ion mode: POSITIVE
Ionization: ESI
Fragmentation mode: HCD
Collision energy: 180 % (nominal)
Resolution: 15000
Column name: XBridge C18 3.5um, 2.1x50mm, Waters
Retention time: 8.860 min
Base peak: 249.0193
Precursor m/z: 249.0192
Precursor type: [M+H]+
Precursor intensity: 425494460.33
m/z	relative intensity	assigned
52.0182	23	C3H2N+
58.0287	33	C2H4NO+
61.0073	62	C5H+
61.9792	43	CHClN+
62.0151	232	C5H2+
63.0229	608	C5H3+
64.0182	85	C4H2N+
64.0307	24	C5H4+
65.0386	11	C5H5+
72.9839	999	C3H2Cl+
74.0151	62	C6H2+
75.0228	27	C6H3+
76.0181	69	C5H2N+
81.0337	11	C5H5O+
82.945	307	CHCl2+
84.984	12	C4H2Cl+
89.0261	11	C6H3N+
90.0338	154	C6H4N+
91.0417	86	C6H5N+
96.984	102	C5H2Cl+
98.9996	161	C5H4Cl+
106.9451	102	C3HCl2+
108.9843	13	C6H2Cl+
118.0525	40	C7H6N2+
125.0026	23	C6H4ClN+
132.9605	44	C5H3Cl2+
