Mass spectrum: N-EtFOSA; LC-ESI-QFT; MS2; CE: 45%; R=17500; [M-H]-
Name: N-EtFOSA
Name: Sulfluramid
Name: N-ethyl-1,1,2,2,3,3,4,4,5,5,6,6,7,7,8,8,8-heptadecafluorooctane-1-sulfonamide
Formula: C10H6F17NO2S
Exact mass: 526.984779172
SMILES: CCNS(=O)(=O)C(C(C(C(C(C(C(C(F)(F)F)(F)F)(F)F)(F)F)(F)F)(F)F)(F)F)(F)F
InChI: InChI=1S/C10H6F17NO2S/c1-2-28-31(29,30)10(26,27)8(21,22)6(17,18)4(13,14)3(11,12)5(15,16)7(19,20)9(23,24)25/h28H,2H2,1H3
Instrument: Exploris 240 Orbitrap Thermo Scientific
Instrument type: LC-ESI-QFT
Ms type: MS2
Ion mode: NEGATIVE
Ionization: ESI
Fragmentation mode: HCD
Collision energy: 45 % (nominal)
Resolution: 17500
Column name: XBridge C18 3.5um, 2.1x50mm, Waters
Retention time: 14.948 min
Base peak: 616.0092
Precursor m/z: 525.9775
Precursor type: [M-H]-
m/z	relative intensity	assigned
63.9625	179	O2S-
64.9703	455	HO2S-
82.961	94	FO2S-
118.9924	504	C2F5-
126.0027	223	C2H5FNO2S-
168.9893	999	C3F7-
218.9864	191	C4F9-
