Mass spectrum: Enzalutamide; LC-ESI-QFT; MS2; CE: 60%; R=15000; [M-H]-
Name: Enzalutamide
Name: 4-[3-[4-cyano-3-(trifluoromethyl)phenyl]-5,5-dimethyl-4-oxo-2-sulfanylideneimidazolidin-1-yl]-2-fluoro-N-methylbenzamide
Name: 4-[3-[4-cyano-3-(trifluoromethyl)phenyl]-5,5-dimethyl-4-oxidanylidene-2-sulfanylidene-imidazolidin-1-yl]-2-fluoranyl-N-methyl-benzamide
Formula: C21H16F4N4O2S
Exact mass: 464.0930096
SMILES: CC1(C(=O)N(C(=S)N1C2=CC(=C(C=C2)C(=O)NC)F)C3=CC(=C(C=C3)C#N)C(F)(F)F)C
InChI: InChI=1S/C21H16F4N4O2S/c1-20(2)18(31)28(12-5-4-11(10-26)15(8-12)21(23,24)25)19(32)29(20)13-6-7-14(16(22)9-13)17(30)27-3/h4-9H,1-3H3,(H,27,30)
Instrument: Q Exactive
Instrument type: LC-ESI-QFT
Ms type: MS2
Ion mode: NEGATIVE
Ionization: ESI
Fragmentation mode: HCD
Collision energy: 60 % (nominal)
Resolution: 15000
Column name: XBridge C18 3.5um, 2.1x50mm, Waters
Retention time: 8.435 min
Base peak: 509.0916
Precursor m/z: 463.0857
Precursor type: [M-H]-
Precursor intensity: 6769032.91
m/z	relative intensity	assigned
57.9757	177	CNS-
100.0194	440	C7H2N-
120.0255	123	C7H3FN-
151.9975	177	C7H3FNS-
158.0611	422	C10H8NO-
185.0333	197	C8H4F3N2-
233.0536	46	C12H7F2N2O-
253.0595	999	C12H8F3N2O-
