Mass spectrum: Bisacodyl; LC-ESI-QFT; MS2; CE: 150%; R=15000; [M+H]+
Name: Bisacodyl
Name: [4-[(4-acetyloxyphenyl)-pyridin-2-ylmethyl]phenyl] acetate
Formula: C22H19NO4
Exact mass: 361.1314081
SMILES: CC(=O)OC1=CC=C(C=C1)C(C2=CC=C(C=C2)OC(=O)C)C3=CC=CC=N3
InChI: InChI=1S/C22H19NO4/c1-15(24)26-19-10-6-17(7-11-19)22(21-5-3-4-14-23-21)18-8-12-20(13-9-18)27-16(2)25/h3-14,22H,1-2H3
Instrument: Exploris 240 Thermo Scientific
Instrument type: LC-ESI-QFT
Ms type: MS2
Ion mode: POSITIVE
Ionization: ESI
Fragmentation mode: HCD
Collision energy: 150 % (nominal)
Resolution: 15000
Column name: XBridge C18 3.5um, 2.1x50mm, Waters
Retention time: 6.583 min
Base peak: 362.1387
Precursor m/z: 362.1387
Precursor type: [M+H]+
m/z	relative intensity	assigned
77.0385	13	C6H5+
89.0388	22	C7H5+
96.0446	16	C5H6NO+
115.0544	34	C9H7+
127.0541	46	C10H7+
128.0497	35	C9H6N+
128.0623	77	C10H8+
139.0542	181	C11H7+
140.0496	75	C10H6N+
140.0624	45	C11H8+
145.0649	29	C10H9O+
154.0651	999	C11H8N+
155.0733	54	C11H9N+
166.0652	371	C12H8N+
167.0729	555	C12H9N+
182.0599	197	C12H8NO+
183.0678	272	C12H9NO+
