Mass spectrum: N,N`-Dicyclohexylthiourea; LC-ESI-QFT; MS2; CE: 150%; R=15000; [M+H]+
Name: N,N`-Dicyclohexylthiourea
Name: CID 14595
Name: N,N`-dicyclohexylcarbamimidothioic acid
Formula: C13H24N2S
Exact mass: 240.1660198
SMILES: S=C(NC1CCCCC1)NC1CCCCC1
InChI: InChI=1S/C13H24N2S/c16-13(14-11-7-3-1-4-8-11)15-12-9-5-2-6-10-12/h11-12H,1-10H2,(H2,14,15,16)
Instrument: Exploris 240 Thermo Scientific
Instrument type: LC-ESI-QFT
Ms type: MS2
Ion mode: POSITIVE
Ionization: ESI
Fragmentation mode: HCD
Collision energy: 150 % (nominal)
Resolution: 15000
Column name: XBridge C18 3.5um, 2.1x50mm, Waters
Retention time: 9.597 min
Base peak: 241.1729
Precursor m/z: 241.1733
Precursor type: [M+H]+
m/z	relative intensity	assigned
53.0386	67	C4H5+
55.0542	999	C4H7+
59.9902	588	CH2NS+
