Mass spectrum: Carfentrazone-ethyl; LC-ESI-QFT; MS2; CE: 75%; R=15000; [M+H]+
Name: Carfentrazone-ethyl
Name: ethyl 2-chloro-3-[2-chloro-5-[4-(difluoromethyl)-3-methyl-5-oxo-1,2,4-triazol-1-yl]-4-fluorophenyl]propanoate
Formula: C15H14Cl2F3N3O3
Exact mass: 411.0364313
SMILES: CCOC(=O)C(CC1=CC(=C(C=C1Cl)F)N2C(=O)N(C(=N2)C)C(F)F)Cl
InChI: InChI=1S/C15H14Cl2F3N3O3/c1-3-26-13(24)10(17)4-8-5-12(11(18)6-9(8)16)23-15(25)22(14(19)20)7(2)21-23/h5-6,10,14H,3-4H2,1-2H3
Instrument: Exploris 240 Thermo Scientific
Instrument type: LC-ESI-QFT
Ms type: MS2
Ion mode: POSITIVE
Ionization: ESI
Fragmentation mode: HCD
Collision energy: 75 % (nominal)
Resolution: 15000
Column name: XBridge C18 3.5um, 2.1x50mm, Waters
Retention time: 10.983 min
Base peak: 412.0433
Precursor m/z: 412.0437
Precursor type: [M+H]+
m/z	relative intensity	assigned
74.0036	175	C2HFNO+
87.0354	50	C3H4FN2+
92.0308	54	C3H4F2N+
140.9899	298	C2H2ClF2N3+
156.001	54	C7H4ClFN+
169.009	215	C8H5ClFN+
169.9928	131	C3H3ClF2N3O+
176.9665	999	C2H3Cl2F2N3+
183.0116	123	C11H2FNO+
185.9918	29	C8H3ClF2N+
194.0037	37	C9H4ClFN2+
194.988	152	C9H3ClFNO+
195.9958	257	C9H4ClFNO+
201.9618	106	C11ClFO+
204.9613	226	C6ClF2N2O2+
206.0285	62	C10H4F2N2O+
207.0355	98	C13H4FN2+
211.0066	209	C12H2FNO2+
212.0145	51	C9H6ClFN2O+
221.9989	37	C10H4ClFN2O+
223.9903	401	C10H4ClFNO2+
228.9975	145	C9H4ClF2N2O+
240.9972	459	C13HF2NO2+
256.968	33	C10H4Cl2FN2O+
276.974	39	C10H5Cl2F2N2O+
288.0093	93	C14H6ClFN2O2+
