Mass spectrum: Alverine; LC-ESI-QFT; MS2; CE: 45%; R=17500; [M+H]+
Name: Alverine
Name: N-ethyl-3-phenyl-N-(3-phenylpropyl)propan-1-amine
Formula: C20H27N
Exact mass: 281.214349864
SMILES: CCN(CCCC1=CC=CC=C1)CCCC2=CC=CC=C2
InChI: InChI=1S/C20H27N/c1-2-21(17-9-15-19-11-5-3-6-12-19)18-10-16-20-13-7-4-8-14-20/h3-8,11-14H,2,9-10,15-18H2,1H3
Instrument: Exploris 240 Orbitrap Thermo Scientific
Instrument type: LC-ESI-QFT
Ms type: MS2
Ion mode: POSITIVE
Ionization: ESI
Fragmentation mode: HCD
Collision energy: 45 % (nominal)
Resolution: 17500
Column name: XBridge C18 3.5um, 2.1x50mm, Waters
Retention time: 7.913 min
Base peak: 282.2213
Precursor m/z: 282.2216
Precursor type: [M+H]+
m/z	relative intensity	assigned
58.0651	7	C3H8N+
91.0542	365	C7H7+
119.0854	36	C9H11+
162.1283	7	C11H16N+
164.1433	107	C11H18N+
282.2216	999	C20H28N+
