Mass spectrum: Flufenacet; LC-ESI-QFT; MS2; CE: 180%; R=15000; [M+H]+
Name: Flufenacet
Name: N-(4-fluorophenyl)-N-propan-2-yl-2-[[5-(trifluoromethyl)-1,3,4-thiadiazol-2-yl]oxy]acetamide
Formula: C14H13F4N3O2S
Exact mass: 363.0664605
SMILES: CC(C)N(C(=O)COC1=NN=C(S1)C(F)(F)F)C1=CC=C(F)C=C1
InChI: InChI=1S/C14H13F4N3O2S/c1-8(2)21(10-5-3-9(15)4-6-10)11(22)7-23-13-20-19-12(24-13)14(16,17)18/h3-6,8H,7H2,1-2H3
Instrument: Q Exactive Plus
Instrument type: LC-ESI-QFT
Ms type: MS2
Ion mode: POSITIVE
Ionization: ESI
Fragmentation mode: HCD
Collision energy: 180 % (nominal)
Resolution: 15000
Column name: XBridge C18 3.5um, 2.1x50mm, Waters
Retention time: 10.445 min
Base peak: 364.0739
Precursor m/z: 364.0737
Precursor type: [M+H]+
Precursor intensity: 508954947.53
m/z	relative intensity	assigned
50.0151	298	C4H2+
51.023	676	C4H3+
53.0386	84	C4H5+
57.0135	504	C3H2F+
63.0229	149	C5H3+
69.0135	44	C4H2F+
70.0212	93	C4H3F+
74.0151	619	C6H2+
75.0229	999	C6H3+
77.0386	111	C6H5+
81.0136	67	C5H2F+
83.0292	321	C5H4F+
89.0386	27	C7H5+
95.0292	71	C6H4F+
95.0491	254	C6H7O+
96.037	144	C6H5F+
97.0448	38	C6H6F+
105.0448	76	C6H5N2+
107.0291	99	C7H4F+
109.0447	54	C7H6F+
113.0399	109	C6H6FO+
123.0353	112	C6H4FN2+
