Mass spectrum: Sulfentrazone; LC-ESI-QFT; MS2; CE: 60%; R=15000; [M+H]+
Name: Sulfentrazone
Name: N-[2,4-dichloro-5-[4-(difluoromethyl)-3-methyl-5-oxo-1,2,4-triazol-1-yl]phenyl]methanesulfonamide
Formula: C11H10Cl2F2N4O3S
Exact mass: 385.981873
SMILES: CC1=NN(C(=O)N1C(F)F)C1=CC(NS(C)(=O)=O)=C(Cl)C=C1Cl
InChI: InChI=1S/C11H10Cl2F2N4O3S/c1-5-16-19(11(20)18(5)10(14)15)9-4-8(17-23(2,21)22)6(12)3-7(9)13/h3-4,10,17H,1-2H3
Instrument: Q Exactive Plus
Instrument type: LC-ESI-QFT
Ms type: MS2
Ion mode: POSITIVE
Ionization: ESI
Fragmentation mode: HCD
Collision energy: 60 % (nominal)
Resolution: 15000
Column name: XBridge C18 3.5um, 2.1x50mm, Waters
Retention time: 6.517 min
Base peak: 386.9893
Precursor m/z: 386.9891
Precursor type: [M+H]+
Precursor intensity: 79056822.8
m/z	relative intensity	assigned
61.9792	21	CHClN+
74.0036	104	C2HFNO+
92.0306	96	C3H4F2N+
99.0426	34	C3H5N3O+
99.995	11	C4H3ClN+
101.0135	30	C6HN2+
102.0105	19	C4H5ClN+
109.9792	117	C5HClN+
111.9949	38	C5H3ClN+
119.0239	10	C6H3N2O+
127.0056	24	C5H4ClN2+
127.9896	63	ClFH2N4O+
133.9557	13	C4H2Cl2N+
136.99	194	C6H2ClN2+
139.0057	306	C6H4ClN2+
145.9558	320	C5H2Cl2N+
146.0001	144	ClFH4N4O2+
146.9635	14	Cl2FH2N4+
149.0395	51	C4H5F2N3O+
155.0005	679	C6H4ClN2O+
157.9558	249	C6H2Cl2N+
163.9663	999	Cl2FH3N4O+
170.9514	15	C6HCl2N2+
172.9667	297	C6H3Cl2N2+
173.9521	31	C6ClFO3+
173.9745	200	C9HClNO+
175.9666	26	C6H4Cl2NO+
178.0165	269	C8H5ClN3+
180.0322	19	C8H7ClN3+
181.0033	11	C10HN2O2+
181.0402	13	C11H5N2O+
182.0114	257	C7H5ClN3O+
186.9822	532	C7H5Cl2N2+
188.9619	19	C9ClNO2+
198.9459	294	C7HCl2N2O+
200.9616	27	C10ClNO2+
212.002	34	C5H9ClN2O3S+
218.9526	30	C8ClN4S+
223.0379	164	C9H8ClN4O+
232.0082	403	C8H5ClF2N3O+
245.963	62	C8H3Cl2FN3O+
256.9993	31	C9H7Cl2N4O+
258.0069	58	C9H8Cl2N4O+
271.0188	14	C7H11ClFN3O3S+
272.027	59	C10H7ClF2N4O+
273.0346	487	C10H8ClF2N4O+
279.9847	75	C6H11Cl2FN2O3S+
306.9961	10	C10H7Cl2F2N4O+
