Mass spectrum: Valeryl-4-hydroxyvalsartan; LC-ESI-QFT; MS2; CE: 90%; R=17500; [M+H]+
Name: Valeryl-4-hydroxyvalsartan
Name: 2-[4-hydroxypentanoyl-[[4-[2-(2H-tetrazol-5-yl)phenyl]phenyl]methyl]amino]-3-methylbutanoic acid
Formula: C24H29N5O4
Exact mass: 451.2219544
SMILES: CC(C)C(C(=O)O)N(CC1=CC=C(C=C1)C2=CC=CC=C2C3=NNN=N3)C(=O)CCC(C)O
InChI: InChI=1S/C24H29N5O4/c1-15(2)22(24(32)33)29(21(31)13-8-16(3)30)14-17-9-11-18(12-10-17)19-6-4-5-7-20(19)23-25-27-28-26-23/h4-7,9-12,15-16,22,30H,8,13-14H2,1-3H3,(H,32,33)(H,25,26,27,28)
Instrument: Exploris 240 Orbitrap Thermo Scientific
Instrument type: LC-ESI-QFT
Ms type: MS2
Ion mode: POSITIVE
Ionization: ESI
Fragmentation mode: HCD
Collision energy: 90 % (nominal)
Resolution: 17500
Column name: XBridge C18 3.5um, 2.1x50mm, Waters
Retention time: 6.688 min
Base peak: 452.2288
Precursor m/z: 452.2292
Precursor type: [M+H]+
m/z	relative intensity	assigned
53.0388	20	C4H5+
55.0542	132	C4H7+
59.0494	22	C3H7O+
72.0808	78	C4H10N+
77.0385	118	C6H5+
80.0495	68	C5H6N+
95.0493	38	C6H7O+
105.0448	58	C6H5N2+
115.0543	54	C9H7+
127.0544	22	C10H7+
129.0448	39	C8H5N2+
139.0542	30	C11H7+
140.0496	155	C10H6N+
141.0706	18	C11H9+
151.0544	179	C12H7+
152.062	779	C12H8+
153.0699	627	C12H9+
154.0654	56	C11H8N+
155.0606	38	C10H7N2+
163.0543	226	C13H7+
165.0567	46	C12H7N+
166.0654	39	C12H8N+
167.073	79	C12H9N+
168.0686	53	C11H8N2+
169.0648	51	C12H9O+
180.0807	691	C13H10N+
189.0582	58	C14H7N+
190.0652	999	C14H8N+
192.0679	458	C13H8N2+
196.0756	20	C13H10NO+
205.0761	855	C14H9N2+
206.0838	317	C14H10N2+
