Mass spectrum: N-Desmethylrosuvastatin; LC-ESI-QFT; MS2; CE: 60%; R=17500; [M-H]-
Name: N-Desmethylrosuvastatin
Name: 7-[4-(4-fluorophenyl)-2-(methanesulfonamido)-6-propan-2-ylpyrimidin-5-yl]-3,5-dihydroxyhept-6-enoic acid
Formula: C21H26FN3O6S
Exact mass: 467.1526348
SMILES: CC(C)C1=NC(=NC(=C1C=CC(CC(CC(=O)O)O)O)C2=CC=C(C=C2)F)NS(=O)(=O)C
InChI: InChI=1S/C21H26FN3O6S/c1-12(2)19-17(9-8-15(26)10-16(27)11-18(28)29)20(13-4-6-14(22)7-5-13)24-21(23-19)25-32(3,30)31/h4-9,12,15-16,26-27H,10-11H2,1-3H3,(H,28,29)(H,23,24,25)
Instrument: Exploris 240 Orbitrap Thermo Scientific
Instrument type: LC-ESI-QFT
Ms type: MS2
Ion mode: NEGATIVE
Ionization: ESI
Fragmentation mode: HCD
Collision energy: 60 % (nominal)
Resolution: 17500
Column name: XBridge C18 3.5um, 2.1x50mm, Waters
Retention time: 5.365 min
Base peak: 466.145
Precursor m/z: 466.1454
Precursor type: [M-H]-
m/z	relative intensity	assigned
57.0346	50	C3H5O-
59.0138	198	C2H3O2-
63.9624	249	O2S-
76.9702	247	CHO2S-
77.9777	22	CH2O2S-
78.9859	673	CH3O2S-
83.0502	251	C5H7O-
85.0295	144	C4H5O2-
87.0086	177	C3H3O3-
93.9965	91	CH4NO2S-
95.0305	27	C6H4F-
118.992	999	C2H3N2O2S-
160.0884	22	C9H10N3-
186.0471	238	C10H5FN3-
198.0473	79	C11H5FN3-
204.1137	106	C11H14N3O-
225.0709	29	C10H13N2O2S-
228.0939	25	C13H11FN3-
230.1093	362	C10H18N2O2S-
240.0581	422	C18H8O-
240.0938	162	C14H11FN3-
242.1096	411	C11H18N2O2S-
252.0952	51	C9H17FN2O3S-
254.1097	386	C15H13FN3-
256.1258	229	C20H16-
264.0939	89	C13H16N2O2S-
280.125	63	C14H20N2O2S-
282.1045	101	C13H18N2O3S-
282.1418	377	C11H23FN2O3S-
284.1202	854	C13H20N2O3S-
292.0567	66	C21H7FN-
306.0716	129	C14H13FN3O2S-
306.142	28	C16H22N2O2S-
320.0873	874	C15H15FN3O2S-
