Mass spectrum: Nifedipine; LC-ESI-QFT; MS2; CE: 60%; R=15000; [M+H]+
Name: Nifedipine
Name: dimethyl 2,6-dimethyl-4-(2-nitrophenyl)-1,4-dihydropyridine-3,5-dicarboxylate
Formula: C17H18N2O6
Exact mass: 346.1164863
SMILES: CC1=C(C(C(=C(N1)C)C(=O)OC)C2=CC=CC=C2[N+](=O)[O-])C(=O)OC
InChI: InChI=1S/C17H18N2O6/c1-9-13(16(20)24-3)15(14(10(2)18-9)17(21)25-4)11-7-5-6-8-12(11)19(22)23/h5-8,15,18H,1-4H3
Instrument: Exploris 240 Thermo Scientific
Instrument type: LC-ESI-QFT
Ms type: MS2
Ion mode: POSITIVE
Ionization: ESI
Fragmentation mode: HCD
Collision energy: 60 % (nominal)
Resolution: 15000
Column name: XBridge C18 3.5um, 2.1x50mm, Waters
Retention time: 7.287 min
Base peak: 347.1235
Precursor m/z: 347.1238
Precursor type: [M+H]+
m/z	relative intensity	assigned
51.0229	66	C4H3+
75.0231	56	C6H3+
89.0386	142	C7H5+
95.0493	98	C6H7O+
103.0544	52	C8H7+
113.0387	58	C9H5+
115.0542	877	C9H7+
116.0497	105	C8H6N+
117.0571	72	C8H7N+
128.0497	166	C9H6N+
128.0622	339	C10H8+
129.0451	74	C8H5N2+
129.0696	49	C10H9+
139.0541	349	C11H7+
140.0496	481	C10H6N+
140.0624	76	C11H8+
141.0569	102	C10H7N+
141.0702	151	C11H9+
142.0655	104	C10H8N+
145.0648	141	C10H9O+
146.0602	72	C9H8NO+
152.0492	127	C11H6N+
153.057	158	C11H7N+
154.0649	405	C11H8N+
155.0602	215	C10H7N2+
166.0653	618	C12H8N+
167.0732	999	C12H9N+
169.064	70	C12H9O+
170.06	206	C11H8NO+
179.0598	382	C12H7N2+
192.0684	370	C13H8N2+
193.076	388	C13H9N2+
194.0843	114	C13H10N2+
195.0913	286	C13H11N2+
202.0777	866	C16H10+
