Mass spectrum: ortho-Hydroxyatorvastatin; LC-ESI-QFT; MS2; CE: 45%; R=17500; [M+H]+
Name: ortho-Hydroxyatorvastatin
Name: Orthohydroxyatorvastatin
Name: (3R,5R)-7-[2-(4-fluorophenyl)-4-[(2-hydroxyphenyl)carbamoyl]-3-phenyl-5-propan-2-ylpyrrol-1-yl]-3,5-dihydroxyheptanoic acid
Formula: C33H35FN2O6
Exact mass: 574.2479151
SMILES: CC(C1=C(C(NC2=CC=CC=C2O)=O)C(C3=CC=CC=C3)=C(C4=CC=C(F)C=C4)N1CC[C@@H](O)C[C@@H](O)CC(O)=O)C
InChI: InChI=1S/C33H35FN2O6/c1-20(2)31-30(33(42)35-26-10-6-7-11-27(26)39)29(21-8-4-3-5-9-21)32(22-12-14-23(34)15-13-22)36(31)17-16-24(37)18-25(38)19-28(40)41/h3-15,20,24-25,37-39H,16-19H2,1-2H3,(H,35,42)(H,40,41)/t24-,25-/m1/s1
Instrument: Exploris 240 Orbitrap Thermo Scientific
Instrument type: LC-ESI-QFT
Ms type: MS2
Ion mode: POSITIVE
Ionization: ESI
Fragmentation mode: HCD
Collision energy: 45 % (nominal)
Resolution: 17500
Column name: XBridge C18 3.5um, 2.1x50mm, Waters
Retention time: 9.950 min
Base peak: 575.2551
Precursor m/z: 575.2552
Precursor type: [M+H]+
m/z	relative intensity	assigned
71.0126	6	C3H3O2+
79.0541	23	C6H7+
80.0492	12	C5H6N+
83.0492	15	C5H7O+
89.0234	9	C3H5O3+
101.0596	14	C5H9O2+
108.0444	59	C6H6NO+
136.0393	47	C7H6NO2+
209.0762	6	C15H10F+
237.0946	7	C16H12FN+
238.1026	81	C16H13FN+
248.0866	13	C17H11FN+
249.095	65	C17H12FN+
250.1027	999	C17H13FN+
252.1185	33	C17H15FN+
262.1032	55	C18H13FN+
264.0814	10	C17H11FNO+
264.1185	16	C18H15FN+
275.1117	6	C19H14FN+
276.0818	56	C18H11FNO+
276.1179	399	C19H15FN+
277.1265	20	C19H16FN+
278.0987	8	C18H13FNO+
278.1334	8	C19H17FN+
279.1416	9	C19H18FN+
288.118	6	C20H15FN+
290.1349	27	C20H17FN+
292.1497	364	C20H19FN+
294.1653	42	C20H21FN+
302.096	27	C23H12N+
302.1346	54	C21H17FN+
306.1286	54	C20H17FNO+
316.1497	24	C22H19FN+
318.1659	68	C22H21FN+
320.1451	63	C21H19FNO+
362.1542	155	C26H20NO+
370.1248	11	C24H17FNO2+
379.1594	18	C26H20FN2+
398.1763	14	C23H25FNO4+
422.212	42	C26H29FNO3+
440.2235	70	C26H31FNO4+
448.1903	7	C30H26NO3+
466.2029	111	C27H29FNO5+
