Mass spectrum: Felbinac; LC-ESI-QFT; MS2; CE: 180%; R=17500; [M+H]+
Name: Felbinac
Name: 2-(4-phenylphenyl)acetic acid
Formula: C14H12O2
Exact mass: 212.083729624
SMILES: C1=CC=C(C=C1)C2=CC=C(C=C2)CC(=O)O
InChI: InChI=1S/C14H12O2/c15-14(16)10-11-6-8-13(9-7-11)12-4-2-1-3-5-12/h1-9H,10H2,(H,15,16)
Instrument: Exploris 240 Orbitrap Thermo Scientific
Instrument type: LC-ESI-QFT
Ms type: MS2
Ion mode: POSITIVE
Ionization: ESI
Fragmentation mode: HCD
Collision energy: 180 % (nominal)
Resolution: 17500
Column name: XBridge C18 3.5um, 2.1x50mm, Waters
Retention time: 9.218 min
Base peak: 235.0727
Precursor m/z: 213.091
Precursor type: [M+H]+
m/z	relative intensity	assigned
63.0229	204	C5H3+
65.0385	332	C5H5+
78.0465	163	C6H6+
89.0384	240	C7H5+
91.0542	216	C7H7+
102.0465	313	C8H6+
115.0541	835	C9H7+
126.0464	278	C10H6+
127.0545	46	C10H7+
128.0624	255	C10H8+
139.0544	225	C11H7+
150.0469	163	C12H6+
151.0545	119	C12H7+
152.0619	357	C12H8+
163.0541	240	C13H7+
164.0617	233	C13H8+
165.0697	999	C13H9+
169.065	148	C12H9O+
