Mass spectrum: Succinic acid; LC-ESI-QFT; MS2; CE: 60%; R=17500; [M-H]-
Name: Succinic acid
Name: butanedioic acid
Formula: C4H6O4
Exact mass: 118.0266087
SMILES: C(CC(=O)O)C(=O)O
InChI: InChI=1S/C4H6O4/c5-3(6)1-2-4(7)8/h1-2H2,(H,5,6)(H,7,8)
Instrument: Exploris 240 Orbitrap Thermo Scientific
Instrument type: LC-ESI-QFT
Ms type: MS2
Ion mode: NEGATIVE
Ionization: ESI
Fragmentation mode: HCD
Collision energy: 60 % (nominal)
Resolution: 17500
Column name: XBridge C18 3.5um, 2.1x50mm, Waters
Retention time: 1.266 min
Base peak: 117.0194
Precursor m/z: 117.0193
Precursor type: [M-H]-
m/z	relative intensity	assigned
55.0189	22	C3H3O-
71.014	2	C3H3O2-
73.0295	999	C3H5O2-
99.0088	71	C4H3O3-
117.0194	81	C4H5O4-
