Mass spectrum: Dichlobenil; LC-ESI-QFT; MS2; CE: 75%; R=15000; [M+H]+
Name: Dichlobenil
Name: 2,6-dichlorobenzonitrile
Formula: C7H3Cl2N
Exact mass: 170.9642545
SMILES: ClC1=CC=CC(Cl)=C1C#N
InChI: InChI=1S/C7H3Cl2N/c8-6-2-1-3-7(9)5(6)4-10/h1-3H
Instrument: Q Exactive Plus
Instrument type: LC-ESI-QFT
Ms type: MS2
Ion mode: POSITIVE
Ionization: ESI
Fragmentation mode: HCD
Collision energy: 75 % (nominal)
Resolution: 15000
Column name: XBridge C18 3.5um, 2.1x50mm, Waters
Retention time: 7.517 min
Base peak: 164.9847
Precursor m/z: 171.9715
Precursor type: [M+H]+
Precursor intensity: 5374401.04
m/z	relative intensity	assigned
100.0182	999	C7H2N+
135.995	355	C7H3ClN+
171.9716	280	C7H4Cl2N+
