Mass spectrum: Mefenpyr-diethyl; LC-ESI-QFT; MS2; CE: 15%; R=15000; [M+H]+
Name: Mefenpyr-diethyl
Name: diethyl 1-(2,4-dichlorophenyl)-5-methyl-4H-pyrazole-3,5-dicarboxylate
Formula: C16H18Cl2N2O4
Exact mass: 372.0643624
SMILES: CCOC(=O)C1=NN(C2=C(Cl)C=C(Cl)C=C2)C(C)(C1)C(=O)OCC
InChI: InChI=1S/C16H18Cl2N2O4/c1-4-23-14(21)12-9-16(3,15(22)24-5-2)20(19-12)13-7-6-10(17)8-11(13)18/h6-8H,4-5,9H2,1-3H3
Instrument: Q Exactive Plus
Instrument type: LC-ESI-QFT
Ms type: MS2
Ion mode: POSITIVE
Ionization: ESI
Fragmentation mode: HCD
Collision energy: 15 % (nominal)
Resolution: 15000
Column name: XBridge C18 3.5um, 2.1x50mm, Waters
Retention time: 11.907 min
Base peak: 373.0719
Precursor m/z: 373.0716
Precursor type: [M+H]+
Precursor intensity: 306650994.19
m/z	relative intensity	assigned
327.0297	999	C14H13Cl2N2O3+
359.0557	17	C15H17Cl2N2O4+
