Mass spectrum: 5-Hydroxysulfapyridine; LC-ESI-QFT; MS2; CE: 90%; R=17500; [M-H]-
Name: 5-Hydroxysulfapyridine
Name: Benzenesulfonamide, 4-amino-N-(5-hydroxy-2-pyridinyl)-
Name: 4-amino-N-(5-hydroxypyridin-2-yl)benzenesulfonamide
Formula: C11H11N3O3S
Exact mass: 265.0521122
SMILES: C1=CC(=CC=C1N)S(=O)(=O)NC2=NC=C(C=C2)O
InChI: InChI=1S/C11H11N3O3S/c12-8-1-4-10(5-2-8)18(16,17)14-11-6-3-9(15)7-13-11/h1-7,15H,12H2,(H,13,14)
Instrument: Exploris 240 Orbitrap Thermo Scientific
Instrument type: LC-ESI-QFT
Ms type: MS2
Ion mode: NEGATIVE
Ionization: ESI
Fragmentation mode: HCD
Collision energy: 90 % (nominal)
Resolution: 17500
Column name: XBridge C18 3.5um, 2.1x50mm, Waters
Retention time: 2.551 min
Base peak: 264.0447
Precursor m/z: 264.0448
Precursor type: [M-H]-
m/z	relative intensity	assigned
63.9625	999	O2S-
79.0064	8	C4HNO-
92.0505	113	C6H6N-
108.0329	126	C5H4N2O-
109.0408	292	C5H5N2O-
