Mass spectrum: 5-Hydroxysulfapyridine; LC-ESI-QFT; MS2; CE: 75%; R=17500; [M+H]+
Name: 5-Hydroxysulfapyridine
Name: Benzenesulfonamide, 4-amino-N-(5-hydroxy-2-pyridinyl)-
Name: 4-amino-N-(5-hydroxypyridin-2-yl)benzenesulfonamide
Formula: C11H11N3O3S
Exact mass: 265.0521122
SMILES: C1=CC(=CC=C1N)S(=O)(=O)NC2=NC=C(C=C2)O
InChI: InChI=1S/C11H11N3O3S/c12-8-1-4-10(5-2-8)18(16,17)14-11-6-3-9(15)7-13-11/h1-7,15H,12H2,(H,13,14)
Instrument: Exploris 240 Orbitrap Thermo Scientific
Instrument type: LC-ESI-QFT
Ms type: MS2
Ion mode: POSITIVE
Ionization: ESI
Fragmentation mode: HCD
Collision energy: 75 % (nominal)
Resolution: 17500
Column name: XBridge C18 3.5um, 2.1x50mm, Waters
Retention time: 2.562 min
Base peak: 266.0591
Precursor m/z: 266.0594
Precursor type: [M+H]+
m/z	relative intensity	assigned
54.0339	16	C3H4N+
55.0417	14	C3H5N+
65.0385	260	C5H5+
80.0493	43	C5H6N+
81.0448	78	C4H5N2+
82.0286	18	C4H4NO+
82.0526	273	C4H6N2+
92.0494	999	C6H6N+
93.0573	202	C6H7N+
94.0651	21	C6H8N+
108.0444	719	C6H6NO+
109.0395	30	C5H5N2O+
110.0475	446	C5H6N2O+
110.0596	37	C6H8NO+
111.0552	225	C5H7N2O+
140.0166	21	C6H6NOS+
156.011	41	C6H6NO2S+
172.0866	25	C10H10N3+
183.0554	67	C11H7N2O+
184.063	11	C11H8N2O+
199.0736	19	C11H9N3O+
200.0818	292	C11H10N3O+
