Mass spectrum: para-Hydroxyatorvastatin; LC-ESI-QFT; MS2; CE: 75%; R=17500; [M-H]-
Name: para-Hydroxyatorvastatin
Name: 7-[2-(4-fluorophenyl)-4-[(4-hydroxyphenyl)carbamoyl]-3-phenyl-5-propan-2-ylpyrrol-1-yl]-3,5-dihydroxyheptanoic acid
Formula: C33H35FN2O6
Exact mass: 574.2479151
SMILES: CC(C)C1=C(C(=C(N1CCC(CC(CC(=O)O)O)O)C2=CC=C(C=C2)F)C3=CC=CC=C3)C(=O)NC4=CC=C(C=C4)O
InChI: InChI=1S/C33H35FN2O6/c1-20(2)31-30(33(42)35-24-12-14-25(37)15-13-24)29(21-6-4-3-5-7-21)32(22-8-10-23(34)11-9-22)36(31)17-16-26(38)18-27(39)19-28(40)41/h3-15,20,26-27,37-39H,16-19H2,1-2H3,(H,35,42)(H,40,41)
Instrument: Exploris 240 Orbitrap Thermo Scientific
Instrument type: LC-ESI-QFT
Ms type: MS2
Ion mode: NEGATIVE
Ionization: ESI
Fragmentation mode: HCD
Collision energy: 75 % (nominal)
Resolution: 17500
Column name: XBridge C18 3.5um, 2.1x50mm, Waters
Retention time: 8.179 min
Base peak: 573.2404
Precursor m/z: 573.2406
Precursor type: [M-H]-
m/z	relative intensity	assigned
78.0347	11	C5H4N-
85.0295	42	C4H5O2-
106.0298	24	C6H4NO-
107.0378	22	C6H5NO-
108.0454	36	C6H6NO-
134.0247	64	C7H4NO2-
262.1037	347	C18H13FN-
263.1119	34	C18H14FN-
276.1188	31	C19H15FN-
278.135	999	C19H17FN-
