Mass spectrum: Amlodipine metabolite M9; LC-ESI-QFT; MS2; CE: 150%; R=17500; [M+H]+
Name: Amlodipine metabolite M9
Name: 3-Ethyl 5-methyl 2-((2-aminoethoxy)methyl)-4-(2-chlorophenyl)-6-methylpyridine-3,5-dicarboxylate
Name: 3-O-ethyl 5-O-methyl 2-(2-aminoethoxymethyl)-4-(2-chlorophenyl)-6-methylpyridine-3,5-dicarboxylate
Name: Dehydroamlodipine
Formula: C20H23ClN2O5
Exact mass: 406.1295495
SMILES: CCOC(=O)C1=C(C(=C(N=C1COCCN)C)C(=O)OC)C2=CC=CC=C2Cl
InChI: InChI=1S/C20H23ClN2O5/c1-4-28-20(25)18-15(11-27-10-9-22)23-12(2)16(19(24)26-3)17(18)13-7-5-6-8-14(13)21/h5-8H,4,9-11,22H2,1-3H3
Instrument: Exploris 240 Orbitrap Thermo Scientific
Instrument type: LC-ESI-QFT
Ms type: MS2
Ion mode: POSITIVE
Ionization: ESI
Fragmentation mode: HCD
Collision energy: 150 % (nominal)
Resolution: 17500
Column name: XBridge C18 3.5um, 2.1x50mm, Waters
Retention time: 6.888 min
Base peak: 407.1365
Precursor m/z: 407.1368
Precursor type: [M+H]+
m/z	relative intensity	assigned
63.0231	21	C5H3+
75.0228	56	C6H3+
76.0308	12	C6H4+
77.0385	11	C6H5+
89.0387	53	C7H5+
99.0228	81	C8H3+
113.0384	79	C9H5+
114.0467	42	C9H6+
115.0541	67	C9H7+
125.0387	79	C10H5+
126.0464	457	C10H6+
127.0543	29	C10H7+
137.0388	29	C11H5+
138.0465	112	C11H6+
139.0542	999	C11H7+
140.0496	168	C10H6N+
140.0623	119	C11H8+
149.0152	152	C9H6Cl+
150.0465	148	C12H6+
151.0418	59	C11H5N+
152.0624	101	C12H8+
155.0611	15	C10H7N2+
160.0077	11	C10H5Cl+
164.0499	65	C12H6N+
165.0571	15	C12H7N+
166.0651	212	C12H8N+
167.0732	58	C12H9N+
168.058	13	C9H11ClN+
173.0149	73	C11H6Cl+
194.0598	19	C13H8NO+
