Mass spectrum: 2-Benzyl-2-(dimethylamino)-1-[4-(morpholin-4-yl)phenyl]butan-1-one; LC-ESI-QFT; MS2; CE: 90%; R=15000; [M+H]+
Name: 2-Benzyl-2-(dimethylamino)-1-[4-(morpholin-4-yl)phenyl]butan-1-one
Name: 2-Benzyl-2-dimethylamino-1-(4-morpholinophenyl)-1-butanone
Name: 2-benzyl-2-(dimethylamino)-1-(4-morpholin-4-ylphenyl)butan-1-one
Formula: C23H30N2O2
Exact mass: 366.2307282
SMILES: CCC(CC1=CC=CC=C1)(N(C)C)C(=O)C1=CC=C(C=C1)N1CCOCC1
InChI: InChI=1S/C23H30N2O2/c1-4-23(24(2)3,18-19-8-6-5-7-9-19)22(26)20-10-12-21(13-11-20)25-14-16-27-17-15-25/h5-13H,4,14-18H2,1-3H3
Instrument: Exploris 240 Thermo Scientific
Instrument type: LC-ESI-QFT
Ms type: MS2
Ion mode: POSITIVE
Ionization: ESI
Fragmentation mode: HCD
Collision energy: 90 % (nominal)
Resolution: 15000
Column name: XBridge C18 3.5um, 2.1x50mm, Waters
Retention time: 5.169 min
Base peak: 367.2376
Precursor m/z: 367.238
Precursor type: [M+H]+
m/z	relative intensity	assigned
56.0495	25	C3H6N+
70.065	124	C4H8N+
79.0541	138	C6H7+
84.081	17	C5H10N+
85.0885	28	C5H11N+
86.0962	20	C5H12N+
91.0542	877	C7H7+
103.0544	34	C8H7+
104.0493	98	C7H6N+
104.0621	33	C8H8+
105.0699	125	C8H9+
106.0652	134	C7H8N+
115.0546	39	C9H7+
116.0622	24	C9H8+
117.0578	115	C8H7N+
118.065	168	C8H8N+
119.073	71	C8H9N+
129.0701	38	C10H9+
131.0859	80	C10H11+
132.0807	229	C9H10N+
133.0887	57	C9H11N+
144.0809	38	C10H10N+
145.0886	209	C10H11N+
146.0963	271	C10H12N+
147.1041	393	C10H13N+
162.0915	73	C10H12NO+
176.1071	224	C11H14NO+
176.1432	242	C12H18N+
179.0856	112	C14H11+
190.0862	999	C11H12NO2+
202.0777	389	C16H10+
207.1042	264	C15H13N+
