Mass spectrum: 8-Hydroxymirtazapine; LC-ESI-QFT; MS2; CE: 75%; R=17500; [M+H]+
Name: 8-Hydroxymirtazapine
Name: 5-methyl-2,5,19-triazatetracyclo[13.4.0.02,7.08,13]nonadeca-1(15),8,10,12,16,18-hexaen-17-ol
Formula: C17H19N3O
Exact mass: 281.1528122
SMILES: CN1CCN2C(C1)C3=CC=CC=C3CC4=CC(=CN=C42)O
InChI: InChI=1S/C17H19N3O/c1-19-6-7-20-16(11-19)15-5-3-2-4-12(15)8-13-9-14(21)10-18-17(13)20/h2-5,9-10,16,21H,6-8,11H2,1H3
Instrument: Exploris 240 Orbitrap Thermo Scientific
Instrument type: LC-ESI-QFT
Ms type: MS2
Ion mode: POSITIVE
Ionization: ESI
Fragmentation mode: HCD
Collision energy: 75 % (nominal)
Resolution: 17500
Column name: XBridge C18 3.5um, 2.1x50mm, Waters
Retention time: 3.696 min
Base peak: 282.1597
Precursor m/z: 282.1601
Precursor type: [M+H]+
m/z	relative intensity	assigned
53.0386	7	C4H5+
58.0651	54	C3H8N+
68.0132	23	C3H2NO+
70.0651	37	C4H8N+
72.0807	320	C4H10N+
80.0492	11	C5H6N+
91.0545	11	C7H7+
105.0451	6	C6H5N2+
105.0697	15	C8H9+
108.0444	32	C6H6NO+
115.0541	28	C9H7+
116.0491	7	C8H6N+
129.0697	8	C10H9+
130.0647	8	C9H8N+
131.0729	15	C9H9N+
141.0696	8	C11H9+
144.0808	14	C10H10N+
147.0555	7	C8H7N2O+
149.0706	13	C8H9N2O+
156.0806	13	C11H10N+
166.0652	95	C12H8N+
167.0731	10	C12H9N+
182.0839	14	C12H10N2+
183.0916	18	C12H11N2+
194.0843	12	C13H10N2+
195.0685	9	C13H9NO+
196.0761	29	C13H10NO+
198.0913	23	C13H12NO+
208.0752	7	C14H10NO+
210.0785	131	C13H10N2O+
211.0866	999	C13H11N2O+
223.0859	21	C14H11N2O+
225.1025	94	C14H13N2O+
239.1175	14	C15H15N2O+
251.1179	20	C16H15N2O+
