Mass spectrum: N-Methylpregabalin; LC-ESI-QFT; MS2; CE: 60%; R=17500; [M+H]+
Name: N-Methylpregabalin
Name: 5-methyl-3-[(methylazaniumyl)methyl]hexanoate
Formula: C9H19NO2
Exact mass: 173.1415788
SMILES: CC(C)CC(CC(=O)O)CNC
InChI: InChI=1S/C9H19NO2/c1-7(2)4-8(6-10-3)5-9(11)12/h7-8,10H,4-6H2,1-3H3,(H,11,12)
Instrument: Exploris 240 Orbitrap Thermo Scientific
Instrument type: LC-ESI-QFT
Ms type: MS2
Ion mode: POSITIVE
Ionization: ESI
Fragmentation mode: HCD
Collision energy: 60 % (nominal)
Resolution: 17500
Column name: XBridge C18 3.5um, 2.1x50mm, Waters
Retention time: 3.329 min
Base peak: 174.1486
Precursor m/z: 174.1489
Precursor type: [M+H]+
m/z	relative intensity	assigned
43.0179	48	C2H3O+
44.0494	32	C2H6N+
55.0178	254	C3H3O+
55.0542	999	C4H7+
57.0698	168	C4H9+
58.0289	66	C2H4NO+
59.049	88	C3H7O+
67.0541	25	C5H7+
69.0336	45	C4H5O+
69.0699	154	C5H9+
79.0541	64	C6H7+
81.0699	50	C6H9+
82.0651	255	C5H8N+
83.0855	670	C6H11+
96.0808	18	C6H10N+
97.1012	508	C7H13+
101.0962	22	C6H13O+
107.0854	82	C8H11+
125.0961	132	C8H13O+
138.1277	560	C9H16N+
143.1062	22	C8H15O2+
156.1383	912	C9H18NO+
174.1483	76	C9H20NO2+
