Mass spectrum: 6-O-Desmethyl-mycophenolic acid; LC-ESI-QFT; MS2; CE: 30%; R=17500; [M-H]-
Name: 6-O-Desmethyl-mycophenolic acid
Name: 6-(4,6-dihydroxy-7-methyl-3-oxo-1H-2-benzofuran-5-yl)-4-methylhex-4-enoic acid
Formula: C16H18O6
Exact mass: 306.1103383
SMILES: CC1=C2COC(=O)C2=C(C(=C1O)CC=C(C)CCC(=O)O)O
InChI: InChI=1S/C16H18O6/c1-8(4-6-12(17)18)3-5-10-14(19)9(2)11-7-22-16(21)13(11)15(10)20/h3,19-20H,4-7H2,1-2H3,(H,17,18)
Instrument: Exploris 240 Orbitrap Thermo Scientific
Instrument type: LC-ESI-QFT
Ms type: MS2
Ion mode: NEGATIVE
Ionization: ESI
Fragmentation mode: HCD
Collision energy: 30 % (nominal)
Resolution: 17500
Column name: XBridge C18 3.5um, 2.1x50mm, Waters
Retention time: 6.307 min
Base peak: 305.1029
Precursor m/z: 305.1031
Precursor type: [M-H]-
m/z	relative intensity	assigned
148.053	5	C9H8O2-
173.1339	3	C13H17-
179.0348	15	C9H7O4-
191.0355	16	C10H7O4-
192.0429	42	C10H8O4-
193.0506	3	C10H9O4-
261.1132	999	C15H17O4-
287.0928	48	C16H15O5-
305.1031	797	C16H17O6-
