Mass spectrum: Cyphenothrin; LC-ESI-QFT; MS2; CE: 45%; R=15000; [M+H]+
Name: Cyphenothrin
Name: [cyano-(3-phenoxyphenyl)methyl] 2,2-dimethyl-3-(2-methylprop-1-enyl)cyclopropane-1-carboxylate
Formula: C24H25NO3
Exact mass: 375.1834437
SMILES: CC(=CC1C(C1(C)C)C(=O)OC(C#N)C2=CC(=CC=C2)OC3=CC=CC=C3)C
InChI: InChI=1S/C24H25NO3/c1-16(2)13-20-22(24(20,3)4)23(26)28-21(15-25)17-9-8-12-19(14-17)27-18-10-6-5-7-11-18/h5-14,20-22H,1-4H3
Instrument: Exploris 240 Thermo Scientific
Instrument type: LC-ESI-QFT
Ms type: MS2
Ion mode: POSITIVE
Ionization: ESI
Fragmentation mode: HCD
Collision energy: 45 % (nominal)
Resolution: 15000
Column name: XBridge C18 3.5um, 2.1x50mm, Waters
Retention time: 15.687 min
Base peak: 398.172
Precursor m/z: 376.1907
Precursor type: [M+H]+
m/z	relative intensity	assigned
57.0698	52	C4H9+
59.049	22	C3H7O+
67.0541	66	C5H7+
69.0334	21	C4H5O+
69.0698	26	C5H9+
81.0697	383	C6H9+
93.0698	23	C7H9+
95.0491	22	C6H7O+
95.0854	62	C7H11+
105.0698	10	C8H9+
107.0853	78	C8H11+
109.0646	81	C7H9O+
109.101	63	C8H13+
121.1008	52	C9H13+
123.1166	999	C9H15+
151.1114	276	C10H15O+
180.0802	97	C13H10N+
181.0643	424	C13H9O+
198.0906	16	C13H12NO+
