Mass spectrum: Tetramethrin; LC-ESI-QFT; MS2; CE: 90%; R=15000; [M+H]+
Name: Tetramethrin
Name: (1,3-dioxo-4,5,6,7-tetrahydroisoindol-2-yl)methyl 2,2-dimethyl-3-(2-methylprop-1-enyl)cyclopropane-1-carboxylate
Formula: C19H25NO4
Exact mass: 331.1783583
SMILES: CC(=CC1C(C1(C)C)C(=O)OCN2C(=O)C3=C(C2=O)CCCC3)C
InChI: InChI=1S/C19H25NO4/c1-11(2)9-14-15(19(14,3)4)18(23)24-10-20-16(21)12-7-5-6-8-13(12)17(20)22/h9,14-15H,5-8,10H2,1-4H3
Instrument: Exploris 240 Thermo Scientific
Instrument type: LC-ESI-QFT
Ms type: MS2
Ion mode: POSITIVE
Ionization: ESI
Fragmentation mode: HCD
Collision energy: 90 % (nominal)
Resolution: 15000
Column name: XBridge C18 3.5um, 2.1x50mm, Waters
Retention time: 13.389 min
Base peak: 332.1851
Precursor m/z: 332.1856
Precursor type: [M+H]+
m/z	relative intensity	assigned
53.0386	66	C4H5+
55.0541	58	C4H7+
67.0541	90	C5H7+
77.0385	256	C6H5+
79.0541	632	C6H7+
80.0492	56	C5H6N+
81.0698	280	C6H9+
91.0541	313	C7H7+
93.0697	282	C7H9+
95.049	148	C6H7O+
95.0853	14	C7H11+
105.0697	166	C8H9+
107.049	999	C7H7O+
107.0853	159	C8H11+
108.0807	108	C7H10N+
119.0854	87	C9H11+
120.0934	29	C9H12+
135.0438	267	C8H7O2+
135.1167	56	C10H15+
136.039	62	C7H6NO2+
136.0759	29	C8H10NO+
164.0703	575	C9H10NO2+
