Mass spectrum: Sulfurol; LC-ESI-QFT; MS2; CE: 90%; R=17500; [M+H]+
Name: Sulfurol
Name: 4-Methyl-5-thiazoleethanol
Name: 2-(4-methyl-1,3-thiazol-5-yl)ethanol
Formula: C6H9NOS
Exact mass: 143.0404849
SMILES: CC1=C(SC=N1)CCO
InChI: InChI=1S/C6H9NOS/c1-5-6(2-3-8)9-4-7-5/h4,8H,2-3H2,1H3
Instrument: Exploris 240 Orbitrap Thermo Scientific
Instrument type: LC-ESI-QFT
Ms type: MS2
Ion mode: POSITIVE
Ionization: ESI
Fragmentation mode: HCD
Collision energy: 90 % (nominal)
Resolution: 17500
Column name: XBridge C18 3.5um, 2.1x50mm, Waters
Retention time: 1.742 min
Base peak: 144.0476
Precursor m/z: 144.0478
Precursor type: [M+H]+
m/z	relative intensity	assigned
44.9794	5	CHS+
53.0385	4	C4H5+
55.0417	3	C3H5N+
55.0542	6	C4H7+
58.9951	15	C2H3S+
65.0386	48	C5H5+
68.0496	5	C4H6N+
70.995	12	C3H3S+
72.0028	19	C3H4S+
73.0107	11	C3H5S+
80.0494	14	C5H6N+
81.0572	8	C5H7N+
85.0107	10	C4H5S+
86.0184	10	C4H6S+
87.0264	6	C4H7S+
97.0105	5	C5H5S+
98.0057	9	C4H4NS+
99.0262	45	C5H7S+
112.0215	64	C5H6NS+
113.0293	999	C5H7NS+
114.0374	17	C5H8NS+
126.0372	240	C6H8NS+
144.0477	198	C6H10NOS+
