Mass spectrum: Chlorprothixene; LC-ESI-QFT; MS2; CE: 120%; R=17500; [M+H]+
Name: Chlorprothixene
Name: 3-(2-chlorothioxanthen-9-ylidene)-N,N-dimethylpropan-1-amine
Formula: C18H18ClNS
Exact mass: 315.084848256
SMILES: CN(C)CCC=C1C2=CC=CC=C2SC3=C1C=C(C=C3)Cl
InChI: InChI=1S/C18H18ClNS/c1-20(2)11-5-7-14-15-6-3-4-8-17(15)21-18-10-9-13(19)12-16(14)18/h3-4,6-10,12H,5,11H2,1-2H3
Instrument: Exploris 240 Orbitrap Thermo Scientific
Instrument type: LC-ESI-QFT
Ms type: MS2
Ion mode: POSITIVE
Ionization: ESI
Fragmentation mode: HCD
Collision energy: 120 % (nominal)
Resolution: 17500
Column name: XBridge C18 3.5um, 2.1x50mm, Waters
Retention time: 10.058 min
Base peak: 316.0919
Precursor m/z: 316.0921
Precursor type: [M+H]+
m/z	relative intensity	assigned
58.0651	286	C3H8N+
70.0652	472	C4H8N+
84.0808	284	C5H10N+
115.0546	38	C9H7+
128.0625	24	C10H8+
149.0151	14	C9H6Cl+
151.0546	30	C12H7+
152.062	366	C12H8+
164.0619	36	C13H8+
165.0699	213	C13H9+
176.062	65	C14H8+
177.07	31	C14H9+
178.0782	94	C14H10+
189.0697	106	C15H9+
195.0262	226	C13H7S+
196.0342	240	C13H8S+
199.0311	294	C13H8Cl+
202.0777	460	C16H10+
203.0857	47	C16H11+
208.0334	97	C14H8S+
209.0422	62	C14H9S+
221.0421	999	C15H9S+
231.0031	152	C13H8ClS+
233.0429	36	C16H9S+
234.0498	432	C16H10S+
235.0581	42	C16H11S+
255.0031	111	C15H8ClS+
