Mass spectrum: Suberoylanilide hydroxamic acid; LC-ESI-QFT; MS2; CE: 30%; R=15000; [M-H]-
Name: Suberoylanilide hydroxamic acid
Name: Vorinostat
Name: N`-hydroxy-N-phenyloctanediamide
Formula: C14H20N2O3
Exact mass: 264.1473925
SMILES: C1=CC=C(C=C1)NC(=O)CCCCCCC(=O)NO
InChI: InChI=1S/C14H20N2O3/c17-13(15-12-8-4-3-5-9-12)10-6-1-2-7-11-14(18)16-19/h3-5,8-9,19H,1-2,6-7,10-11H2,(H,15,17)(H,16,18)
Instrument: Exploris 240 Thermo Scientific
Instrument type: LC-ESI-QFT
Ms type: MS2
Ion mode: NEGATIVE
Ionization: ESI
Fragmentation mode: HCD
Collision energy: 30 % (nominal)
Resolution: 15000
Column name: XBridge C18 3.5um, 2.1x50mm, Waters
Retention time: 4.905 min
Base peak: 263.1397
Precursor m/z: 263.1401
Precursor type: [M-H]-
m/z	relative intensity	assigned
58.0298	10	C2H4NO-
71.0136	11	C3H3O2-
92.0504	84	C6H6N-
96.0453	32	C5H6NO-
107.0612	30	C6H7N2-
111.0814	524	C7H11O-
126.0923	158	C7H12NO-
202.1237	26	C13H16NO-
219.1506	28	C13H19N2O-
263.1398	999	C14H19N2O3-
