Mass spectrum: Hydroxytorasemide; LC-ESI-QFT; MS2; CE: 180%; R=17500; [M+H]+
Name: Hydroxytorasemide
Name: Torasemide metabolite M1
Name: 1-[4-[3-(hydroxymethyl)anilino]pyridin-3-yl]sulfonyl-3-propan-2-ylurea
Formula: C16H20N4O4S
Exact mass: 364.1205261
SMILES: CC(C)NC(=O)NS(=O)(=O)C1=C(C=CN=C1)NC2=CC=CC(=C2)CO
InChI: InChI=1S/C16H20N4O4S/c1-11(2)18-16(22)20-25(23,24)15-9-17-7-6-14(15)19-13-5-3-4-12(8-13)10-21/h3-9,11,21H,10H2,1-2H3,(H,17,19)(H2,18,20,22)
Instrument: Exploris 240 Orbitrap Thermo Scientific
Instrument type: LC-ESI-QFT
Ms type: MS2
Ion mode: POSITIVE
Ionization: ESI
Fragmentation mode: HCD
Collision energy: 180 % (nominal)
Resolution: 17500
Column name: XBridge C18 3.5um, 2.1x50mm, Waters
Retention time: 4.126 min
Base peak: 365.1276
Precursor m/z: 365.1278
Precursor type: [M+H]+
m/z	relative intensity	assigned
50.0152	72	C4H2+
51.023	291	C4H3+
53.0386	47	C4H5+
63.0229	451	C5H3+
65.0386	267	C5H5+
67.042	34	C4H5N+
75.0229	349	C6H3+
77.0386	404	C6H5+
78.0338	46	C5H4N+
79.0417	62	C5H5N+
87.0232	64	C7H3+
88.0308	203	C7H4+
89.0386	997	C7H5+
90.0465	166	C7H6+
91.0543	56	C7H7+
95.0491	131	C6H7O+
101.0388	78	C8H5+
103.0544	38	C8H7+
105.0449	112	C6H5N2+
113.0386	338	C9H5+
114.0466	255	C9H6+
115.0542	999	C9H7+
116.0495	93	C8H6N+
117.0574	116	C8H7N+
126.0463	99	C10H6+
127.0545	101	C10H7+
128.0495	229	C9H6N+
129.045	143	C8H5N2+
129.0561	35	CH11N3O2S+
132.0574	32	C9H8O+
140.0494	623	C10H6N+
141.0572	156	C10H7N+
142.0526	54	C9H6N2+
142.0656	40	C10H8N+
153.0576	38	C11H7N+
154.0649	123	C11H8N+
155.0602	180	C10H7N2+
167.0605	48	C3H11N4O2S+
168.0679	127	C11H8N2+
169.0764	73	C11H9N2+
179.0608	66	C6H13NO3S+
181.0762	429	C12H9N2+
