Mass spectrum: Thiazopyr; LC-ESI-QFT; MS2; CE: 45%; R=15000; [M+H]+
Name: Thiazopyr
Name: methyl 2-(difluoromethyl)-5-(4,5-dihydro-1,3-thiazol-2-yl)-4-(2-methylpropyl)-6-(trifluoromethyl)pyridine-3-carboxylate
Formula: C16H17F5N2O2S
Exact mass: 396.0930899
SMILES: COC(=O)C1=C(CC(C)C)C(C2=NCCS2)=C(N=C1C(F)F)C(F)(F)F
InChI: InChI=1S/C16H17F5N2O2S/c1-7(2)6-8-9(15(24)25-3)11(13(17)18)23-12(16(19,20)21)10(8)14-22-4-5-26-14/h7,13H,4-6H2,1-3H3
Instrument: Q Exactive Plus
Instrument type: LC-ESI-QFT
Ms type: MS2
Ion mode: POSITIVE
Ionization: ESI
Fragmentation mode: HCD
Collision energy: 45 % (nominal)
Resolution: 15000
Column name: XBridge C18 3.5um, 2.1x50mm, Waters
Retention time: 11.443 min
Base peak: 397.1005
Precursor m/z: 397.1004
Precursor type: [M+H]+
Precursor intensity: 1271256978.97
m/z	relative intensity	assigned
61.0106	746	C2H5S+
73.0647	14	C4H9O+
75.0263	81	C3H7S+
76.0216	24	C2H6NS+
221.0881	14	C9H16FNO2S+
222.0724	197	C12H10F2NO+
229.0765	34	C16H9N2+
237.0643	19	C9H9F4N2O+
238.0474	16	C12H7F3NO+
249.0834	158	C13H11F2N2O+
250.0675	200	C13H10F2NO2+
253.0953	16	C10H17F2NO2S+
265.0584	189	C10H9F4N2O2+
269.0899	146	C13H12F3N2O+
271.069	23	C15H9F2N2O+
272.0225	16	C11H7F3N2OS+
272.0692	54	C13H10F4NO+
276.0339	144	C11H8F4N2S+
280.0108	25	C12H6F2N2O2S+
288.0293	43	C12H9F3NO2S+
297.0857	367	C14H15F2N2OS+
300.0175	202	C12H7F3N2O2S+
300.0642	51	C14H10F4NO2+
303.0209	385	C12H7F4N2OS+
315.0409	193	C13H10F3N2O2S+
317.0912	291	C14H13F4N2O2+
319.0161	156	C12H7F4N2O2S+
322.0597	39	C15H12F2N2O2S+
325.0616	117	C15H12F3N2OS+
335.0471	999	C13H11F4N2O2S+
337.081	91	C16H15F2N2O2S+
357.0877	101	C16H16F3N2O2S+
377.0942	576	C16H17F4N2O2S+
397.1004	232	C16H18F5N2O2S+
