Mass spectrum: 2-Hydroxytrimipramine; LC-ESI-QFT; MS2; CE: 120%; R=17500; [M+H]+
Name: 2-Hydroxytrimipramine
Name: 11-[3-(dimethylamino)-2-methylpropyl]-5,6-dihydrobenzo[b][1]benzazepin-3-ol
Formula: C20H26N2O
Exact mass: 310.2045135
SMILES: CC(CN1C2=C(CCC3=CC=CC=C31)C=C(C=C2)O)CN(C)C
InChI: InChI=1S/C20H26N2O/c1-15(13-21(2)3)14-22-19-7-5-4-6-16(19)8-9-17-12-18(23)10-11-20(17)22/h4-7,10-12,15,23H,8-9,13-14H2,1-3H3
Instrument: Exploris 240 Orbitrap Thermo Scientific
Instrument type: LC-ESI-QFT
Ms type: MS2
Ion mode: POSITIVE
Ionization: ESI
Fragmentation mode: HCD
Collision energy: 120 % (nominal)
Resolution: 17500
Column name: XBridge C18 3.5um, 2.1x50mm, Waters
Retention time: 6.165 min
Base peak: 311.2116
Precursor m/z: 311.2118
Precursor type: [M+H]+
m/z	relative intensity	assigned
56.0495	21	C3H6N+
58.0651	999	C3H8N+
70.0651	19	C4H8N+
71.073	15	C4H9N+
84.0809	7	C5H10N+
85.0885	6	C5H11N+
91.0542	9	C7H7+
100.1121	19	C6H14N+
107.0491	5	C7H7O+
165.07	12	C13H9+
167.0728	14	C12H9N+
180.0809	65	C13H10N+
181.065	7	C13H9O+
181.0882	8	C13H11N+
208.0759	32	C14H10NO+
209.0839	47	C14H11NO+
