Mass spectrum: Valeryl-4-hydroxyvalsartan; LC-ESI-QFT; MS2; CE: 45%; R=17500; [M+H]+
Name: Valeryl-4-hydroxyvalsartan
Name: 2-[4-hydroxypentanoyl-[[4-[2-(2H-tetrazol-5-yl)phenyl]phenyl]methyl]amino]-3-methylbutanoic acid
Formula: C24H29N5O4
Exact mass: 451.2219544
SMILES: CC(C)C(C(=O)O)N(CC1=CC=C(C=C1)C2=CC=CC=C2C3=NNN=N3)C(=O)CCC(C)O
InChI: InChI=1S/C24H29N5O4/c1-15(2)22(24(32)33)29(21(31)13-8-16(3)30)14-17-9-11-18(12-10-17)19-6-4-5-7-20(19)23-25-27-28-26-23/h4-7,9-12,15-16,22,30H,8,13-14H2,1-3H3,(H,32,33)(H,25,26,27,28)
Instrument: Exploris 240 Orbitrap Thermo Scientific
Instrument type: LC-ESI-QFT
Ms type: MS2
Ion mode: POSITIVE
Ionization: ESI
Fragmentation mode: HCD
Collision energy: 45 % (nominal)
Resolution: 17500
Column name: XBridge C18 3.5um, 2.1x50mm, Waters
Retention time: 6.688 min
Base peak: 452.2288
Precursor m/z: 452.2292
Precursor type: [M+H]+
m/z	relative intensity	assigned
55.0541	15	C4H7+
72.0809	18	C4H10N+
80.0493	6	C5H6N+
84.0807	12	C5H10N+
101.0595	7	C5H9O2+
115.0543	4	C9H7+
118.0861	7	C5H12NO2+
140.0495	15	C10H6N+
153.07	52	C12H9+
154.1228	18	C9H16NO+
163.0538	8	C13H7+
167.0727	11	C12H9N+
178.0783	103	C14H10+
179.086	67	C14H11+
180.0808	264	C13H10N+
190.0652	213	C14H8N+
191.0729	20	C14H9N+
200.1283	13	C10H18NO3+
205.0757	13	C14H9N2+
206.0838	128	C14H10N2+
207.0917	999	C14H11N2+
235.098	164	C14H11N4+
