Mass spectrum: Tetramethrin; LC-ESI-QFT; MS2; CE: 30%; R=15000; [M+H]+
Name: Tetramethrin
Name: (1,3-dioxo-4,5,6,7-tetrahydroisoindol-2-yl)methyl 2,2-dimethyl-3-(2-methylprop-1-enyl)cyclopropane-1-carboxylate
Formula: C19H25NO4
Exact mass: 331.1783583
SMILES: CC(=CC1C(C1(C)C)C(=O)OCN2C(=O)C3=C(C2=O)CCCC3)C
InChI: InChI=1S/C19H25NO4/c1-11(2)9-14-15(19(14,3)4)18(23)24-10-20-16(21)12-7-5-6-8-13(12)17(20)22/h9,14-15H,5-8,10H2,1-4H3
Instrument: Exploris 240 Thermo Scientific
Instrument type: LC-ESI-QFT
Ms type: MS2
Ion mode: POSITIVE
Ionization: ESI
Fragmentation mode: HCD
Collision energy: 30 % (nominal)
Resolution: 15000
Column name: XBridge C18 3.5um, 2.1x50mm, Waters
Retention time: 13.389 min
Base peak: 332.1851
Precursor m/z: 332.1856
Precursor type: [M+H]+
m/z	relative intensity	assigned
69.0698	11	C5H9+
93.0698	21	C7H9+
95.0852	13	C7H11+
109.1011	15	C8H13+
121.1009	176	C9H13+
135.1166	867	C10H15+
137.1319	16	C10H17+
152.0707	38	C8H10NO2+
163.1115	173	C11H15O+
164.0703	999	C9H10NO2+
286.1797	109	C18H24NO2+
314.175	66	C19H24NO3+
