Mass spectrum: 4-(2-Hydroxyethyl)morpholine; LC-ESI-QFT; MS2; CE: 30%; R=15000; [M+H]+
Name: 4-(2-Hydroxyethyl)morpholine
Name: 2-Morpholinoethanol
Name: 2-morpholin-4-ylethanol
Formula: C6H13NO2
Exact mass: 131.0946287
SMILES: C1COCCN1CCO
InChI: InChI=1S/C6H13NO2/c8-4-1-7-2-5-9-6-3-7/h8H,1-6H2
Instrument: Exploris 240 Thermo Scientific
Instrument type: LC-ESI-QFT
Ms type: MS2
Ion mode: POSITIVE
Ionization: ESI
Fragmentation mode: HCD
Collision energy: 30 % (nominal)
Resolution: 15000
Column name: XBridge C18 3.5um, 2.1x50mm, Waters
Retention time: 0.785 min
Base peak: 132.1015
Precursor m/z: 132.1019
Precursor type: [M+H]+
m/z	relative intensity	assigned
114.0912	20	C6H12NO+
132.1016	999	C6H14NO2+
