Mass spectrum: Acibenzolar-S-methyl; LC-ESI-QFT; MS2; CE: 45%; R=15000; [M+H]+
Name: Acibenzolar-S-methyl
Name: S-methyl 1,2,3-benzothiadiazole-7-carbothioate
Formula: C8H6N2OS2
Exact mass: 209.9921548
SMILES: CSC(=O)C1=C2C(=CC=C1)N=NS2
InChI: InChI=1S/C8H6N2OS2/c1-12-8(11)5-3-2-4-6-7(5)13-10-9-6/h2-4H,1H3
Instrument: Exploris 240 Thermo Scientific
Instrument type: LC-ESI-QFT
Ms type: MS2
Ion mode: POSITIVE
Ionization: ESI
Fragmentation mode: HCD
Collision energy: 45 % (nominal)
Resolution: 15000
Column name: XBridge C18 3.5um, 2.1x50mm, Waters
Retention time: 8.455 min
Base peak: 210.9989
Precursor m/z: 210.9994
Precursor type: [M+H]+
m/z	relative intensity	assigned
91.0541	168	C7H7+
109.0105	30	C6H5S+
111.0261	18	C6H7S+
121.0103	20	C7H5S+
122.0185	31	C7H6S+
134.9898	41	C7H3OS+
136.0092	34	C6H4N2S+
139.9745	51	C6H4S2+
167.9696	53	C7H4OS2+
210.999	999	C8H7N2OS2+
