Mass spectrum: 2-Acetylaminofluorene; LC-ESI-QFT; MS2; CE: 120%; R=15000; [M+H]+
Name: 2-Acetylaminofluorene
Name: N-(9H-fluoren-2-yl)acetamide
Formula: C15H13NO
Exact mass: 223.099714
SMILES: CC(=O)NC1=CC=C2C(CC3=C2C=CC=C3)=C1
InChI: InChI=1S/C15H13NO/c1-10(17)16-13-6-7-15-12(9-13)8-11-4-2-3-5-14(11)15/h2-7,9H,8H2,1H3,(H,16,17)
Instrument: Q Exactive Plus
Instrument type: LC-ESI-QFT
Ms type: MS2
Ion mode: POSITIVE
Ionization: ESI
Fragmentation mode: HCD
Collision energy: 120 % (nominal)
Resolution: 15000
Column name: XBridge C18 3.5um, 2.1x50mm, Waters
Retention time: 8.918 min
Base peak: 224.107
Precursor m/z: 224.107
Precursor type: [M+H]+
Precursor intensity: 497879017.52
m/z	relative intensity	assigned
54.0338	15	C3H4N+
115.0543	242	C9H7+
116.0619	11	C9H8+
128.0621	23	C10H8+
129.0699	10	C10H9+
139.0543	129	C11H7+
140.062	55	C11H8+
141.0699	43	C11H9+
152.0621	73	C12H8+
153.0699	76	C12H9+
163.0541	61	C13H7+
164.062	187	C13H8+
165.0699	999	C13H9+
166.065	54	C12H8N+
166.0781	14	C13H10+
167.073	149	C12H9N+
168.0569	93	C12H8O+
180.0807	544	C13H10N+
181.0886	62	C13H11N+
