Mass spectrum: Felbinac; LC-ESI-QFT; MS2; CE: 90%; R=17500; [M+H]+
Name: Felbinac
Name: 2-(4-phenylphenyl)acetic acid
Formula: C14H12O2
Exact mass: 212.083729624
SMILES: C1=CC=C(C=C1)C2=CC=C(C=C2)CC(=O)O
InChI: InChI=1S/C14H12O2/c15-14(16)10-11-6-8-13(9-7-11)12-4-2-1-3-5-12/h1-9H,10H2,(H,15,16)
Instrument: Exploris 240 Orbitrap Thermo Scientific
Instrument type: LC-ESI-QFT
Ms type: MS2
Ion mode: POSITIVE
Ionization: ESI
Fragmentation mode: HCD
Collision energy: 90 % (nominal)
Resolution: 17500
Column name: XBridge C18 3.5um, 2.1x50mm, Waters
Retention time: 9.218 min
Base peak: 235.0727
Precursor m/z: 213.091
Precursor type: [M+H]+
m/z	relative intensity	assigned
128.0619	96	C10H8+
141.0696	81	C11H9+
152.062	965	C12H8+
165.0697	999	C13H9+
166.0777	281	C13H10+
167.0855	858	C13H11+
169.065	22	C12H9O+
