Mass spectrum: Montelukast; LC-ESI-QFT; MS2; CE: 40%; R=15000; [M+H]+
Name: Montelukast
Name: 2-[1-[[1-[3-[2-(7-chloroquinolin-2-yl)ethenyl]phenyl]-3-[2-(2-hydroxypropan-2-yl)phenyl]propyl]sulfanylmethyl]cyclopropyl]acetic acid
Formula: C35H36ClNO3S
Exact mass: 585.2104427
SMILES: CC(C)(C1=CC=CC=C1CCC(C2=CC=CC(=C2)C=CC3=NC4=C(C=CC(=C4)Cl)C=C3)SCC5(CC5)CC(=O)O)O
InChI: InChI=1S/C35H36ClNO3S/c1-34(2,40)30-9-4-3-7-25(30)13-17-32(41-23-35(18-19-35)22-33(38)39)27-8-5-6-24(20-27)10-15-29-16-12-26-11-14-28(36)21-31(26)37-29/h3-12,14-16,20-21,32,40H,13,17-19,22-23H2,1-2H3,(H,38,39)
Instrument: Exploris 240 Thermo Scientific
Instrument type: LC-ESI-QFT
Ms type: MS2
Ion mode: POSITIVE
Ionization: ESI
Fragmentation mode: HCD
Collision energy: 40 % (nominal)
Resolution: 15000
Column name: XBridge C18 3.5um, 2.1x50mm, Waters
Retention time: 15.027 min
Base peak: 586.2179
Precursor m/z: 586.2177
Precursor type: [M+H]+
m/z	relative intensity	assigned
71.0493	24	C4H7O+
91.0542	999	C7H7+
103.0546	31	C8H7+
105.0698	225	C8H9+
115.0541	187	C9H7+
116.0619	162	C9H8+
117.07	141	C9H9+
128.0619	163	C10H8+
129.0698	414	C10H9+
131.0854	515	C10H11+
141.0577	13	C10H7N+
141.0698	49	C11H9+
142.0776	217	C11H10+
143.0853	57	C11H11+
157.1013	41	C12H13+
162.0105	110	C9H5ClN+
164.026	54	C9H7ClN+
177.0338	135	C10H8ClN+
201.034	23	C12H8ClN+
202.0776	308	C16H10+
215.0854	33	C17H11+
241.0887	154	C18H11N+
242.0963	455	C12H18O3S+
243.104	449	C18H13N+
251.0495	154	C16H10ClN+
256.1128	28	C13H20O3S+
266.0734	31	C17H13ClN+
275.0498	271	C18H10ClN+
276.0574	694	C18H11ClN+
277.0652	981	C18H12ClN+
278.0731	414	C18H13ClN+
288.0578	45	C22H8O+
292.0886	310	C19H15ClN+
294.0683	53	C18H13ClNO+
304.0889	261	C20H15ClN+
364.0892	19	C19H21ClO3S+
