Mass spectrum: Flurochloridone; LC-ESI-QFT; MS2; CE: 90%; R=15000; [M+H]+
Name: Flurochloridone
Name: 3-chloro-4-(chloromethyl)-1-[3-(trifluoromethyl)phenyl]pyrrolidin-2-one
Formula: C12H10Cl2F3NO
Exact mass: 311.009154
SMILES: C1C(C(C(=O)N1C2=CC=CC(=C2)C(F)(F)F)Cl)CCl
InChI: InChI=1S/C12H10Cl2F3NO/c13-5-7-6-18(11(19)10(7)14)9-3-1-2-8(4-9)12(15,16)17/h1-4,7,10H,5-6H2
Instrument: Exploris 240 Thermo Scientific
Instrument type: LC-ESI-QFT
Ms type: MS2
Ion mode: POSITIVE
Ionization: ESI
Fragmentation mode: HCD
Collision energy: 90 % (nominal)
Resolution: 15000
Column name: XBridge C18 3.5um, 2.1x50mm, Waters
Retention time: 9.717 min
Base peak: 312.0161
Precursor m/z: 312.0164
Precursor type: [M+H]+
m/z	relative intensity	assigned
51.0229	46	C4H3+
53.0385	999	C4H5+
74.9995	209	C3H4Cl+
86.9994	57	C4H4Cl+
89.0151	67	C4H6Cl+
102.9944	54	C4H4ClO+
107.029	19	C7H4F+
127.0353	200	C7H5F2+
130.0651	112	C9H8N+
143.0726	96	C10H9N+
145.0258	414	C7H4F3+
154.0464	29	C8H6F2N+
172.0368	202	C8H5F3N+
172.0555	45	C11H7FN+
178.0461	22	C10H6F2N+
179.0542	38	C10H7F2N+
192.0616	111	C11H8F2N+
198.0521	331	C10H7F3N+
212.0676	120	C11H9F3N+
