Mass spectrum: Naloxone; LC-ESI-QFT; MS2; CE: 90%; R=15000; [M+H]+
Name: Naloxone
Name: Normorphinone, N-allyl-dihydro-14-hydroxy-
Name: (4R,4aS,7aR,12bS)-4a,9-bis(oxidanyl)-3-prop-2-enyl-2,4,5,6,7a,13-hexahydro-1H-4,12-methanobenzofuro[3,2-e]isoquinolin-7-one
Formula: C19H21NO4
Exact mass: 327.1470582
SMILES: C=CCN1CCC23C4C(=O)CCC2(C1CC5=C3C(=C(C=C5)O)O4)O
InChI: InChI=1S/C19H21NO4/c1-2-8-20-9-7-18-15-11-3-4-12(21)16(15)24-17(18)13(22)5-6-19(18,23)14(20)10-11/h2-4,14,17,21,23H,1,5-10H2
Instrument: Q Exactive
Instrument type: LC-ESI-QFT
Ms type: MS2
Ion mode: POSITIVE
Ionization: ESI
Fragmentation mode: HCD
Collision energy: 90 % (nominal)
Resolution: 15000
Column name: XBridge C18 3.5um, 2.1x50mm, Waters
Retention time: 2.392 min
Base peak: 328.1544
Precursor m/z: 328.1543
Precursor type: [M+H]+
Precursor intensity: 187894299.49
m/z	relative intensity	assigned
55.018	23	C3H3O+
67.0541	31	C5H7+
79.0539	54	C6H7+
91.0542	137	C7H7+
95.0491	47	C6H7O+
103.0545	49	C8H7+
105.0701	22	C8H9+
115.0542	157	C9H7+
117.0573	55	C8H7N+
117.0698	24	C9H9+
118.0649	69	C8H8N+
128.062	203	C10H8+
129.0698	163	C10H9+
130.0651	28	C9H8N+
131.0487	39	C9H7O+
139.0537	29	C11H7+
141.0699	91	C11H9+
145.065	124	C10H9O+
146.0599	82	C9H8NO+
152.0621	245	C12H8+
153.0699	242	C12H9+
155.0729	28	C11H9N+
156.057	38	C11H8O+
156.081	153	C11H10N+
157.065	168	C11H9O+
161.0596	217	C10H9O2+
165.0701	102	C13H9+
166.0649	87	C12H8N+
167.0727	95	C12H9N+
167.0858	33	C13H11+
168.0569	18	C12H8O+
168.0807	60	C12H10N+
170.0597	52	C11H8NO+
170.0726	29	C12H10O+
170.0965	27	C12H12N+
171.0437	68	C11H7O2+
171.0805	38	C12H11O+
173.0599	28	C11H9O2+
178.0775	72	C14H10+
179.0859	27	C14H11+
180.0805	153	C13H10N+
181.0647	153	C13H9O+
182.0596	35	C12H8NO+
183.0679	266	C12H9NO+
184.0521	189	C12H8O2+
184.0755	252	C12H10NO+
185.0595	164	C12H9O2+
192.0807	42	C14H10N+
194.0599	27	C13H8NO+
194.0962	59	C14H12N+
197.0833	50	C13H11NO+
198.0914	58	C13H12NO+
199.0755	76	C13H11O2+
208.0754	74	C14H10NO+
211.0618	228	C13H9NO2+
212.0706	999	C13H10NO2+
222.0911	51	C15H12NO+
226.0862	262	C14H12NO2+
240.1017	54	C15H14NO2+
252.1015	65	C16H14NO2+
