Mass spectrum: Dorzolamide; LC-ESI-QFT; MS2; CE: 15%; R=15000; [M+H]+
Name: Dorzolamide
Name: (4S,6S)-4-(ethylamino)-6-methyl-7,7-bis(oxidanylidene)-5,6-dihydro-4H-thieno[2,3-b]thiopyran-2-sulfonamide
Name: 4-(ethylamino)-6-methyl-7,7-dioxo-5,6-dihydro-4H-thieno[2,3-b]thiopyran-2-sulfonamide
Formula: C10H16N2O4S3
Exact mass: 324.02722
SMILES: CCNC1CC(S(=O)(=O)C2=C1C=C(S2)S(=O)(=O)N)C
InChI: InChI=1S/C10H16N2O4S3/c1-3-12-8-4-6(2)18(13,14)10-7(8)5-9(17-10)19(11,15)16/h5-6,8,12H,3-4H2,1-2H3,(H2,11,15,16)
Instrument: Exploris 240 Thermo Scientific
Instrument type: LC-ESI-QFT
Ms type: MS2
Ion mode: POSITIVE
Ionization: ESI
Fragmentation mode: HCD
Collision energy: 15 % (nominal)
Resolution: 15000
Column name: XBridge C18 3.5um, 2.1x50mm, Waters
Retention time: 1.509 min
Base peak: 325.0341
Precursor m/z: 325.0345
Precursor type: [M+H]+
m/z	relative intensity	assigned
198.9881	16	C8H7O2S2+
202.0776	63	C8H14N2O2S+
216.0146	30	C8H10NO2S2+
279.9767	60	C8H10NO4S3+
325.0345	999	C10H17N2O4S3+
