Mass spectrum: Fenhexamid; LC-ESI-QFT; MS2; CE: 45%; R=15000; [M-H]-
Name: Fenhexamid
Name: N-(2,3-dichloro-4-hydroxyphenyl)-1-methylcyclohexane-1-carboxamide
Formula: C14H17Cl2NO2
Exact mass: 301.0636341
SMILES: CC1(CCCCC1)C(=O)NC1=C(Cl)C(Cl)=C(O)C=C1
InChI: InChI=1S/C14H17Cl2NO2/c1-14(7-3-2-4-8-14)13(19)17-9-5-6-10(18)12(16)11(9)15/h5-6,18H,2-4,7-8H2,1H3,(H,17,19)
Instrument: Q Exactive Plus
Instrument type: LC-ESI-QFT
Ms type: MS2
Ion mode: NEGATIVE
Ionization: ESI
Fragmentation mode: HCD
Collision energy: 45 % (nominal)
Resolution: 15000
Column name: XBridge C18 3.5um, 2.1x50mm, Waters
Retention time: 10.237 min
Base peak: 300.0565
Precursor m/z: 300.0564
Precursor type: [M-H]-
Precursor intensity: 12160523.46
m/z	relative intensity	assigned
167.9856	17	C7H3ClNO2-
221.025	29	C11H8ClNO2-
248.0479	11	C13H11ClNO2-
249.0562	185	C13H12ClNO2-
264.0796	999	C14H15ClNO2-
300.0564	57	C14H16Cl2NO2-
