Mass spectrum: Spirodiclofen; LC-ESI-QFT; MS2; CE: 75%; R=15000; [M+H]+
Name: Spirodiclofen
Name: [3-(2,4-dichlorophenyl)-2-oxo-1-oxaspiro[4.5]dec-3-en-4-yl] 2,2-dimethylbutanoate
Formula: C21H24Cl2O4
Exact mass: 410.1051646
SMILES: CCC(C)(C)C(=O)OC1=C(C(=O)OC12CCCCC2)C3=C(C=C(C=C3)Cl)Cl
InChI: InChI=1S/C21H24Cl2O4/c1-4-20(2,3)19(25)26-17-16(14-9-8-13(22)12-15(14)23)18(24)27-21(17)10-6-5-7-11-21/h8-9,12H,4-7,10-11H2,1-3H3
Instrument: Exploris 240 Thermo Scientific
Instrument type: LC-ESI-QFT
Ms type: MS2
Ion mode: POSITIVE
Ionization: ESI
Fragmentation mode: HCD
Collision energy: 75 % (nominal)
Resolution: 15000
Column name: XBridge C18 3.5um, 2.1x50mm, Waters
Retention time: 14.932 min
Base peak: 411.1125
Precursor m/z: 411.1124
Precursor type: [M+H]+
m/z	relative intensity	assigned
67.0544	52	C5H7+
71.0855	999	C5H11+
156.9606	285	C7H3Cl2+
158.9763	270	C7H5Cl2+
179.0857	73	C14H11+
184.9553	477	C8H3Cl2O+
212.9504	188	C9H3Cl2O2+
214.054	36	C14H11Cl+
