Mass spectrum: Azelastine; LC-ESI-QFT; MS2; CE: 50%; R=15000; [M+H]+
Name: Azelastine
Name: 4-[(4-chlorophenyl)methyl]-2-(1-methylazepan-4-yl)phthalazin-1-one
Formula: C22H24ClN3O
Exact mass: 381.1607901
SMILES: CN1CCCC(CC1)N2C(=O)C3=CC=CC=C3C(=N2)CC4=CC=C(C=C4)Cl
InChI: InChI=1S/C22H24ClN3O/c1-25-13-4-5-18(12-14-25)26-22(27)20-7-3-2-6-19(20)21(24-26)15-16-8-10-17(23)11-9-16/h2-3,6-11,18H,4-5,12-15H2,1H3
Instrument: Exploris 240 Thermo Scientific
Instrument type: LC-ESI-QFT
Ms type: MS2
Ion mode: POSITIVE
Ionization: ESI
Fragmentation mode: HCD
Collision energy: 50 % (nominal)
Resolution: 15000
Column name: XBridge C18 3.5um, 2.1x50mm, Waters
Retention time: 6.298 min
Base peak: 382.1677
Precursor m/z: 382.1681
Precursor type: [M+H]+
m/z	relative intensity	assigned
53.0386	23	C4H5+
55.0542	29	C4H7+
58.0651	999	C3H8N+
69.0699	24	C5H9+
70.0652	59	C4H8N+
79.0543	116	C6H7+
81.0698	118	C6H9+
82.0652	14	C5H8N+
84.0808	178	C5H10N+
103.0543	44	C8H7+
112.112	424	C7H14N+
125.0152	54	C7H6Cl+
159.0554	17	C9H7N2O+
202.0777	184	C16H10+
203.0826	39	C8H14ClN3O+
