Mass spectrum: 4,4`-Oxydianiline; LC-ESI-QFT; MS2; CE: 90%; R=15000; [M+H]+
Name: 4,4`-Oxydianiline
Name: 4-(4-aminophenoxy)aniline
Formula: C12H12N2O
Exact mass: 200.094963
SMILES: NC1=CC=C(OC2=CC=C(N)C=C2)C=C1
InChI: InChI=1S/C12H12N2O/c13-9-1-5-11(6-2-9)15-12-7-3-10(14)4-8-12/h1-8H,13-14H2
Instrument: Exploris 240 Thermo Scientific
Instrument type: LC-ESI-QFT
Ms type: MS2
Ion mode: POSITIVE
Ionization: ESI
Fragmentation mode: HCD
Collision energy: 90 % (nominal)
Resolution: 15000
Column name: XBridge C18 3.5um, 2.1x50mm, Waters
Retention time: 1.535 min
Base peak: 201.1018
Precursor m/z: 201.1022
Precursor type: [M+H]+
m/z	relative intensity	assigned
53.0386	31	C4H5+
66.0464	17	C5H6+
76.0308	10	C6H4+
80.0494	795	C5H6N+
93.0572	175	C6H7N+
94.065	12	C6H8N+
108.0443	999	C6H6NO+
128.0618	58	C10H8+
129.0698	47	C10H9+
130.0651	47	C9H8N+
139.0541	21	C11H7+
154.065	24	C11H8N+
156.0807	111	C11H10N+
200.0941	15	C12H12N2O+
