Mass spectrum: Losartan; LC-ESI-QFT; MS2; CE: 60%; R=15000; [M+H]+
Name: Losartan
Name: [2-butyl-5-chloro-3-[[4-[2-(2H-tetrazol-5-yl)phenyl]phenyl]methyl]imidazol-4-yl]methanol
Name: [2-butyl-5-chloranyl-3-[[4-[2-(2H-1,2,3,4-tetrazol-5-yl)phenyl]phenyl]methyl]imidazol-4-yl]methanol
Formula: C22H23ClN6O
Exact mass: 422.162187
SMILES: CCCCC1=NC(=C(N1CC2=CC=C(C=C2)C3=CC=CC=C3C4=NNN=N4)CO)Cl
InChI: InChI=1S/C22H23ClN6O/c1-2-3-8-20-24-21(23)19(14-30)29(20)13-15-9-11-16(12-10-15)17-6-4-5-7-18(17)22-25-27-28-26-22/h4-7,9-12,30H,2-3,8,13-14H2,1H3,(H,25,26,27,28)
Instrument: Q Exactive
Instrument type: LC-ESI-QFT
Ms type: MS2
Ion mode: POSITIVE
Ionization: ESI
Fragmentation mode: HCD
Collision energy: 60 % (nominal)
Resolution: 15000
Column name: XBridge C18 3.5um, 2.1x50mm, Waters
Retention time: 7.649 min
Base peak: 423.1702
Precursor m/z: 423.1695
Precursor type: [M+H]+
Precursor intensity: 1952951099.16
m/z	relative intensity	assigned
79.0543	35	C6H7+
80.0495	63	C5H6N+
95.049	44	C6H7O+
135.0917	19	C8H11N2+
142.0294	150	C6H7ClN2+
152.0619	147	C12H8+
153.0698	171	C12H9+
165.0699	122	C13H9+
166.065	19	C12H8N+
167.0729	58	C12H9N+
178.0781	44	C14H10+
180.0807	999	C13H10N+
190.0651	329	C14H8N+
192.0679	255	C13H8N2+
192.0813	124	C14H10N+
205.0761	599	C14H9N2+
206.0839	679	C14H10N2+
207.0916	630	C14H11N2+
