Mass spectrum: N-Desmethylrosuvastatin; LC-ESI-QFT; MS2; CE: 15%; R=17500; [M-H]-
Name: N-Desmethylrosuvastatin
Name: 7-[4-(4-fluorophenyl)-2-(methanesulfonamido)-6-propan-2-ylpyrimidin-5-yl]-3,5-dihydroxyhept-6-enoic acid
Formula: C21H26FN3O6S
Exact mass: 467.1526348
SMILES: CC(C)C1=NC(=NC(=C1C=CC(CC(CC(=O)O)O)O)C2=CC=C(C=C2)F)NS(=O)(=O)C
InChI: InChI=1S/C21H26FN3O6S/c1-12(2)19-17(9-8-15(26)10-16(27)11-18(28)29)20(13-4-6-14(22)7-5-13)24-21(23-19)25-32(3,30)31/h4-9,12,15-16,26-27H,10-11H2,1-3H3,(H,28,29)(H,23,24,25)
Instrument: Exploris 240 Orbitrap Thermo Scientific
Instrument type: LC-ESI-QFT
Ms type: MS2
Ion mode: NEGATIVE
Ionization: ESI
Fragmentation mode: HCD
Collision energy: 15 % (nominal)
Resolution: 17500
Column name: XBridge C18 3.5um, 2.1x50mm, Waters
Retention time: 5.365 min
Base peak: 466.145
Precursor m/z: 466.1454
Precursor type: [M-H]-
m/z	relative intensity	assigned
78.986	8	CH3O2S-
87.0087	124	C3H3O3-
308.0874	6	C14H15FN3O2S-
360.1188	64	C18H19FN3O2S-
362.0976	99	C17H17FN3O3S-
378.1291	364	C18H21FN3O3S-
386.1342	13	C20H21FN3O2S-
404.1449	999	C20H23FN3O3S-
406.1241	89	C19H21FN3O4S-
