Mass spectrum: 2-Hydroxynevirapine; LC-ESI-QFT; MS2; CE: 90%; R=17500; [M+H]+
Name: 2-Hydroxynevirapine
Name: 2-Hydroxy Nevirapine
Name: 2-cyclopropyl-7-methyl-2,4,9,15-tetrazatricyclo[9.4.0.03,8]pentadeca-1(11),3(8),6,12,14-pentaene-5,10-dione
Formula: C15H14N4O2
Exact mass: 282.1116757
SMILES: CC1=CC(=O)NC2=C1NC(=O)C3=C(N2C4CC4)N=CC=C3
InChI: InChI=1S/C15H14N4O2/c1-8-7-11(20)17-14-12(8)18-15(21)10-3-2-6-16-13(10)19(14)9-4-5-9/h2-3,6-7,9H,4-5H2,1H3,(H,17,20)(H,18,21)
Instrument: Exploris 240 Orbitrap Thermo Scientific
Instrument type: LC-ESI-QFT
Ms type: MS2
Ion mode: POSITIVE
Ionization: ESI
Fragmentation mode: HCD
Collision energy: 90 % (nominal)
Resolution: 17500
Column name: XBridge C18 3.5um, 2.1x50mm, Waters
Retention time: 3.847 min
Base peak: 283.1187
Precursor m/z: 283.119
Precursor type: [M+H]+
m/z	relative intensity	assigned
51.023	43	C4H3+
68.0495	999	C4H6N+
78.0339	464	C5H4N+
79.0417	291	C5H5N+
79.0541	40	C6H7+
80.0496	66	C5H6N+
81.045	25	C4H5N2+
91.0539	126	C7H7+
93.0447	263	C5H5N2+
94.0288	63	C5H4NO+
94.0525	61	C5H6N2+
95.0604	634	C5H7N2+
96.0444	219	C5H6NO+
96.0684	96	C5H8N2+
105.0448	90	C6H5N2+
106.0287	69	C6H4NO+
106.0654	33	C7H8N+
108.0808	37	C7H10N+
116.0497	58	C8H6N+
117.0578	103	C8H7N+
118.0529	59	C7H6N2+
118.0653	70	C8H8N+
119.0482	116	C6H5N3+
119.0604	64	C7H7N2+
120.0557	239	C6H6N3+
121.0395	284	C6H5N2O+
123.0551	59	C6H7N2O+
124.0397	45	C6H6NO2+
124.0626	138	C6H8N2O+
131.0604	308	C8H7N2+
132.0684	71	C8H8N2+
133.0399	27	C7H5N2O+
133.0761	451	C8H9N2+
134.0603	39	C8H8NO+
143.0607	58	C9H7N2+
145.0762	40	C9H9N2+
146.0478	24	C8H6N2O+
147.0558	44	C8H7N2O+
148.051	66	C7H6N3O+
155.0611	62	C10H7N2+
159.0551	243	C9H7N2O+
161.0709	820	C9H9N2O+
169.0631	50	C10H7N3+
171.0675	122	C11H9NO+
185.0596	65	C12H9O2+
185.0819	473	C10H9N4+
186.0906	111	C10H10N4+
198.0663	498	C11H8N3O+
213.0773	456	C11H9N4O+
214.085	548	C11H10N4O+
224.0819	61	C13H10N3O+
239.0928	56	C13H11N4O+
