Mass spectrum: Valeryl-4-hydroxyvalsartan; LC-ESI-QFT; MS2; CE: 75%; R=17500; [M-H]-
Name: Valeryl-4-hydroxyvalsartan
Name: 2-[4-hydroxypentanoyl-[[4-[2-(2H-tetrazol-5-yl)phenyl]phenyl]methyl]amino]-3-methylbutanoic acid
Formula: C24H29N5O4
Exact mass: 451.2219544
SMILES: CC(C)C(C(=O)O)N(CC1=CC=C(C=C1)C2=CC=CC=C2C3=NNN=N3)C(=O)CCC(C)O
InChI: InChI=1S/C24H29N5O4/c1-15(2)22(24(32)33)29(21(31)13-8-16(3)30)14-17-9-11-18(12-10-17)19-6-4-5-7-20(19)23-25-27-28-26-23/h4-7,9-12,15-16,22,30H,8,13-14H2,1-3H3,(H,32,33)(H,25,26,27,28)
Instrument: Exploris 240 Orbitrap Thermo Scientific
Instrument type: LC-ESI-QFT
Ms type: MS2
Ion mode: NEGATIVE
Ionization: ESI
Fragmentation mode: HCD
Collision energy: 75 % (nominal)
Resolution: 17500
Column name: XBridge C18 3.5um, 2.1x50mm, Waters
Retention time: 6.678 min
Base peak: 450.2145
Precursor m/z: 450.2147
Precursor type: [M-H]-
m/z	relative intensity	assigned
57.0348	33	C3H5O-
69.0346	44	C4H5O-
71.0502	183	C4H7O-
72.0455	88	C3H6NO-
81.0345	80	C5H5O-
99.0455	68	C5H7O2-
116.0716	435	C5H10NO2-
128.1081	270	C7H14NO-
154.0876	67	C8H12NO2-
165.0715	77	C13H9-
178.079	999	C14H10-
179.0865	616	C14H11-
190.0671	62	C14H8N-
192.0821	245	C14H10N-
204.0821	57	C15H10N-
206.0853	86	C14H10N2-
207.093	65	C14H11N2-
