Mass spectrum: Edoxaban; LC-ESI-QFT; MS2; CE: 30%; R=15000; [M+H]+
Name: Edoxaban
Name: Edoxaban impurity 5
Name: N`-(5-chloranylpyridin-2-yl)-N-[(1S,2R,4S)-4-(dimethylcarbamoyl)-2-[(5-methyl-6,7-dihydro-4H-[1,3]thiazolo[5,4-c]pyridin-2-yl)carbonylamino]cyclohexyl]ethanediamide
Formula: C24H30ClN7O4S
Exact mass: 547.1768511
SMILES: CN1CCC2=C(C1)SC(=N2)C(=O)NC3CC(CCC3NC(=O)C(=O)NC4=NC=C(C=C4)Cl)C(=O)N(C)C
InChI: InChI=1S/C24H30ClN7O4S/c1-31(2)24(36)13-4-6-15(27-20(33)21(34)30-19-7-5-14(25)11-26-19)17(10-13)28-22(35)23-29-16-8-9-32(3)12-18(16)37-23/h5,7,11,13,15,17H,4,6,8-10,12H2,1-3H3,(H,27,33)(H,28,35)(H,26,30,34)
Instrument: Q Exactive
Instrument type: LC-ESI-QFT
Ms type: MS2
Ion mode: POSITIVE
Ionization: ESI
Fragmentation mode: HCD
Collision energy: 30 % (nominal)
Resolution: 15000
Column name: XBridge C18 3.5um, 2.1x50mm, Waters
Retention time: 4.818 min
Base peak: 548.1841
Precursor m/z: 548.1841
Precursor type: [M+H]+
Precursor intensity: 580986582.02
m/z	relative intensity	assigned
72.0444	262	C3H6NO+
96.0808	39	C6H10N+
107.0491	47	C7H7O+
112.0214	14	C5H6NS+
124.0754	35	C7H10NO+
129.0214	54	C5H6ClN2+
152.1071	999	C9H14NO+
153.048	63	C7H9N2S+
155.0006	102	C6H4ClN2O+
155.0638	67	C7H11N2S+
167.1176	39	C9H15N2O+
169.1335	272	C9H17N2O+
182.9957	43	C7H4ClN2O2+
190.0691	15	C11H12NS+
198.0697	58	C8H12N3OS+
233.0741	41	C12H13N2OS+
238.1187	25	C11H16N3O3+
250.1005	40	C12H16N3OS+
261.0688	36	C10H16ClN3OS+
275.1329	30	C14H19N4S+
276.1165	322	C11H21ClN4S+
293.143	93	C14H21N4OS+
305.1436	67	C12H24ClN5S+
306.1263	231	C10H21ClN7S+
348.1851	292	C21H29ClO2+
366.1957	350	C17H28N5O2S+
432.0885	41	C22H16N4O4S+
505.1405	105	C22H26ClN6O4S+
