Mass spectrum: Carfentrazone-ethyl; LC-ESI-QFT; MS2; CE: 60%; R=15000; [M+H]+
Name: Carfentrazone-ethyl
Name: ethyl 2-chloro-3-[2-chloro-5-[4-(difluoromethyl)-3-methyl-5-oxo-1,2,4-triazol-1-yl]-4-fluorophenyl]propanoate
Formula: C15H14Cl2F3N3O3
Exact mass: 411.0364313
SMILES: CCOC(=O)C(CC1=CC(=C(C=C1Cl)F)N2C(=O)N(C(=N2)C)C(F)F)Cl
InChI: InChI=1S/C15H14Cl2F3N3O3/c1-3-26-13(24)10(17)4-8-5-12(11(18)6-9(8)16)23-15(25)22(14(19)20)7(2)21-23/h5-6,10,14H,3-4H2,1-2H3
Instrument: Exploris 240 Thermo Scientific
Instrument type: LC-ESI-QFT
Ms type: MS2
Ion mode: POSITIVE
Ionization: ESI
Fragmentation mode: HCD
Collision energy: 60 % (nominal)
Resolution: 15000
Column name: XBridge C18 3.5um, 2.1x50mm, Waters
Retention time: 10.983 min
Base peak: 412.0433
Precursor m/z: 412.0437
Precursor type: [M+H]+
m/z	relative intensity	assigned
74.0036	209	C2HFNO+
92.0307	78	C3H4F2N+
169.9928	48	C3H3ClF2N3O+
176.9665	764	C2H3Cl2F2N3+
195.9959	92	C9H4ClFNO+
201.9618	54	C11ClFO+
204.9613	433	C3H3Cl2F2N3O+
209.0267	93	CH13Cl2F2N2O3+
211.0065	149	C12H2FNO2+
212.0149	31	C9H6ClFN2O+
213.0018	107	Cl2F3H10N2O3+
221.9994	48	C10H4ClFN2O+
223.9905	362	C10H4ClFNO2+
228.9975	210	C9H4ClF2N2O+
232.98	157	C12H3ClFO2+
240.9971	999	C13HF2NO2+
242.0052	303	C10H5ClF2N2O+
252.0329	196	C14H5FN2O2+
276.9738	640	C13H2ClF2NO2+
288.0096	372	C14H6ClFN2O2+
302.0298	385	C14H12Cl2F2N+
316.0055	49	C12H9Cl2FN3O2+
345.9952	179	C13H8Cl2F2N3O2+
