Mass spectrum: Acetyl-Tributyl-Citrate; LC-ESI-QFT; MS2; CE: 25%; R=15000; [M+H]+
Name: Acetyl-Tributyl-Citrate
Name: tributyl 2-acetyloxypropane-1,2,3-tricarboxylate
Formula: C20H34O8
Exact mass: 402.225368
SMILES: CCCCOC(=O)CC(CC(=O)OCCCC)(C(=O)OCCCC)OC(=O)C
InChI: InChI=1S/C20H34O8/c1-5-8-11-25-17(22)14-20(28-16(4)21,19(24)27-13-10-7-3)15-18(23)26-12-9-6-2/h5-15H2,1-4H3
Instrument: Exploris 240 Thermo Scientific
Instrument type: LC-ESI-QFT
Ms type: MS2
Ion mode: POSITIVE
Ionization: ESI
Fragmentation mode: HCD
Collision energy: 25 % (nominal)
Resolution: 15000
Column name: XBridge C18 3.5um, 2.1x50mm, Waters
Retention time: 13.909 min
Base peak: 403.2323
Precursor m/z: 403.2326
Precursor type: [M+H]+
m/z	relative intensity	assigned
57.0698	55	C4H9+
61.0283	30	C2H5O2+
68.9971	12	C3HO2+
111.0075	52	C5H3O3+
129.0181	999	C5H5O4+
139.0024	280	C6H3O4+
157.013	129	C6H5O5+
171.0284	14	C7H7O5+
185.0807	142	C9H13O4+
202.0775	119	C16H10+
