Mass spectrum: N,N-Diethyl-p-phenylenediamine; LC-ESI-QFT; MS2; CE: 120%; R=15000; [M+H]+
Name: N,N-Diethyl-p-phenylenediamine
Name: 4-N,4-N-diethylbenzene-1,4-diamine
Formula: C10H16N2
Exact mass: 164.1313485
SMILES: CCN(CC)C1=CC=C(C=C1)N
InChI: InChI=1S/C10H16N2/c1-3-12(4-2)10-7-5-9(11)6-8-10/h5-8H,3-4,11H2,1-2H3
Instrument: Q Exactive Plus
Instrument type: LC-ESI-QFT
Ms type: MS2
Ion mode: POSITIVE
Ionization: ESI
Fragmentation mode: HCD
Collision energy: 120 % (nominal)
Resolution: 15000
Column name: XBridge C18 3.5um, 2.1x50mm, Waters
Retention time: 1.468 min
Base peak: 165.1385
Precursor m/z: 165.1386
Precursor type: [M+H]+
Precursor intensity: 713184621.11
m/z	relative intensity	assigned
53.0385	23	C4H5+
65.0385	62	C5H5+
77.0385	13	C6H5+
80.0494	63	C5H6N+
92.0493	49	C6H6N+
93.0572	485	C6H7N+
94.065	428	C6H8N+
105.0446	17	C6H5N2+
107.0603	175	C6H7N2+
121.0759	999	C7H9N2+
