Mass spectrum: Trimebutine; LC-ESI-QFT; MS2; CE: 90%; R=17500; [M+H]+
Name: Trimebutine
Name: [2-(dimethylamino)-2-phenylbutyl] 3,4,5-trimethoxybenzoate
Formula: C22H29NO5
Exact mass: 387.204573028
SMILES: CCC(COC(=O)C1=CC(=C(C(=C1)OC)OC)OC)(C2=CC=CC=C2)N(C)C
InChI: InChI=1S/C22H29NO5/c1-7-22(23(2)3,17-11-9-8-10-12-17)15-28-21(24)16-13-18(25-4)20(27-6)19(14-16)26-5/h8-14H,7,15H2,1-6H3
Instrument: Exploris 240 Orbitrap Thermo Scientific
Instrument type: LC-ESI-QFT
Ms type: MS2
Ion mode: POSITIVE
Ionization: ESI
Fragmentation mode: HCD
Collision energy: 90 % (nominal)
Resolution: 17500
Column name: XBridge C18 3.5um, 2.1x50mm, Waters
Retention time: 6.755 min
Base peak: 388.2118
Precursor m/z: 388.2118
Precursor type: [M+H]+
m/z	relative intensity	assigned
53.0385	225	C4H5+
65.0386	112	C5H5+
66.0464	53	C5H6+
67.0544	35	C5H7+
68.0258	19	C4H4O+
77.0386	221	C6H5+
78.0465	35	C6H6+
79.0543	138	C6H7+
81.0335	368	C5H5O+
81.0699	59	C6H9+
91.0542	999	C7H7+
92.0259	39	C6H4O+
93.0336	43	C6H5O+
94.0413	55	C6H6O+
95.0492	152	C6H7O+
96.057	155	C6H8O+
103.0543	17	C8H7+
106.0416	31	C7H6O+
107.0129	38	C6H3O2+
107.049	10	C7H7O+
108.0573	34	C7H8O+
109.0284	91	C6H5O2+
109.0648	79	C7H9O+
111.0441	51	C6H7O2+
115.0545	47	C9H7+
116.062	135	C9H8+
121.0285	60	C7H5O2+
122.0364	133	C7H6O2+
123.0442	58	C7H7O2+
124.0518	157	C7H8O2+
128.0624	31	C10H8+
129.0698	89	C10H9+
131.0857	82	C10H11+
134.0367	26	C8H6O2+
137.0233	176	C7H5O3+
138.0679	45	C8H10O2+
139.039	124	C7H7O3+
139.0754	99	C8H11O2+
151.039	133	C8H7O3+
152.0468	235	C8H8O3+
154.0624	132	C8H10O3+
167.0703	23	C9H11O3+
183.0293	22	C8H7O5+
195.0652	55	C10H11O4+
