Mass spectrum: 12-Hydroxynevirapine; LC-ESI-QFT; MS2; CE: 60%; R=17500; [M+H]+
Name: 12-Hydroxynevirapine
Name: 2-cyclopropyl-7-(hydroxymethyl)-2,4,9,15-tetrazatricyclo[9.4.0.03,8]pentadeca-1(11),3,5,7,12,14-hexaen-10-one
Formula: C15H14N4O2
Exact mass: 282.1116757
SMILES: C1CC1N2C3=C(C=CC=N3)C(=O)NC4=C(C=CN=C42)CO
InChI: InChI=1S/C15H14N4O2/c20-8-9-5-7-17-14-12(9)18-15(21)11-2-1-6-16-13(11)19(14)10-3-4-10/h1-2,5-7,10,20H,3-4,8H2,(H,18,21)
Instrument: Exploris 240 Orbitrap Thermo Scientific
Instrument type: LC-ESI-QFT
Ms type: MS2
Ion mode: POSITIVE
Ionization: ESI
Fragmentation mode: HCD
Collision energy: 60 % (nominal)
Resolution: 17500
Column name: XBridge C18 3.5um, 2.1x50mm, Waters
Retention time: 4.006 min
Base peak: 283.1185
Precursor m/z: 283.119
Precursor type: [M+H]+
m/z	relative intensity	assigned
133.076	12	C8H9N2+
161.0708	27	C9H9N2O+
182.0711	35	C11H8N3+
195.0664	10	C11H7N4+
196.0742	176	C11H8N4+
197.0593	8	C13H9O2+
197.0822	20	C11H9N4+
198.0661	11	C11H8N3O+
213.0779	12	C13H11NO2+
220.0863	5	C14H10N3+
223.1103	392	C14H13N3+
224.0691	68	C12H8N4O+
225.0777	24	C12H9N4O+
237.0789	23	C15H11NO2+
237.1132	244	C14H13N4+
238.0969	12	C14H12N3O+
250.0853	96	C14H10N4O+
263.0934	7	C15H11N4O+
264.1009	13	C15H12N4O+
265.1085	999	C15H13N4O+
283.1192	21	C15H15N4O2+
