Mass spectrum: Oxasulfuron; LC-ESI-QFT; MS2; CE: 150%; R=15000; [M+H]+
Name: Oxasulfuron
Name: oxetan-3-yl 2-[(4,6-dimethylpyrimidin-2-yl)carbamoylsulfamoyl]benzoate
Formula: C17H18N4O6S
Exact mass: 406.0947053
SMILES: CC1=CC(=NC(=N1)NC(=O)NS(=O)(=O)C2=CC=CC=C2C(=O)OC3COC3)C
InChI: InChI=1S/C17H18N4O6S/c1-10-7-11(2)19-16(18-10)20-17(23)21-28(24,25)14-6-4-3-5-13(14)15(22)27-12-8-26-9-12/h3-7,12H,8-9H2,1-2H3,(H2,18,19,20,21,23)
Instrument: Exploris 240 Thermo Scientific
Instrument type: LC-ESI-QFT
Ms type: MS2
Ion mode: POSITIVE
Ionization: ESI
Fragmentation mode: HCD
Collision energy: 150 % (nominal)
Resolution: 15000
Column name: XBridge C18 3.5um, 2.1x50mm, Waters
Retention time: 5.484 min
Base peak: 407.1023
Precursor m/z: 407.102
Precursor type: [M+H]+
m/z	relative intensity	assigned
53.0386	83	C4H5+
63.023	57	C5H3+
64.0183	39	C4H2N+
65.0386	87	C5H5+
66.0339	120	C4H4N+
67.0291	999	C3H3N2+
75.023	13	C6H3+
90.0339	77	C6H4N+
