Mass spectrum: Isoxaflutole; LC-ESI-QFT; MS2; CE: 60%; R=15000; [M+H]+
Name: Isoxaflutole
Name: (5-cyclopropyl-1,2-oxazol-4-yl)-[2-methylsulfonyl-4-(trifluoromethyl)phenyl]methanone
Formula: C15H12F3NO4S
Exact mass: 359.0439135
SMILES: CS(=O)(=O)C1=C(C=CC(=C1)C(F)(F)F)C(=O)C1=C(ON=C1)C1CC1
InChI: InChI=1S/C15H12F3NO4S/c1-24(21,22)12-6-9(15(16,17)18)4-5-10(12)13(20)11-7-19-23-14(11)8-2-3-8/h4-8H,2-3H2,1H3
Instrument: Q Exactive Plus
Instrument type: LC-ESI-QFT
Ms type: MS2
Ion mode: POSITIVE
Ionization: ESI
Fragmentation mode: HCD
Collision energy: 60 % (nominal)
Resolution: 15000
Column name: XBridge C18 3.5um, 2.1x50mm, Waters
Retention time: 7.750 min
Base peak: 360.0514
Precursor m/z: 360.0512
Precursor type: [M+H]+
Precursor intensity: 182019318.31
m/z	relative intensity	assigned
62.9899	16	CH3OS+
69.0335	26	C4H5O+
101.0198	19	C5H3F2+
109.0449	63	C7H6F+
115.0014	15	C5H4FS+
120.0181	15	C5H3F3+
127.0354	20	C7H5F2+
129.0147	16	C6H3F2O+
132.0182	79	C6H3F3+
133.0262	22	C6H4F3+
141.0149	36	C7H3F2O+
149.021	100	C6H4F3O+
156.9917	50	C7H3F2S+
159.0416	86	C8H6F3+
160.0131	101	C7H3F3O+
161.0209	60	C7H4F3O+
164.9981	108	C6H4F3S+
166.0236	23	C6H5F3O2+
167.0311	12	C6H6F3O2+
172.013	45	C8H3F3O+
173.0206	15	C8H4F3O+
175.0365	27	C8H6F3O+
176.998	101	C7H4F3S+
177.0156	52	C7H4F3O2+
178.0236	16	C7H5F3O2+
179.0137	24	C7H6F3S+
189.0157	232	C8H4F3O2+
192.9931	121	C9H2FO4+
206.0185	73	C8H5F3O3+
219.98	375	C8H3F3O2S+
220.9878	190	C8H4F3O2S+
250.9984	999	C9H6F3O3S+
