Mass spectrum: Fluazifop-butyl; LC-ESI-QFT; MS2; CE: 75%; R=15000; [M+H]+
Name: Fluazifop-butyl
Name: butyl 2-[4-[5-(trifluoromethyl)pyridin-2-yl]oxyphenoxy]propanoate
Formula: C19H20F3NO4
Exact mass: 383.1344428
SMILES: CCCCOC(=O)C(C)OC1=CC=C(OC2=CC=C(C=N2)C(F)(F)F)C=C1
InChI: InChI=1S/C19H20F3NO4/c1-3-4-11-25-18(24)13(2)26-15-6-8-16(9-7-15)27-17-10-5-14(12-23-17)19(20,21)22/h5-10,12-13H,3-4,11H2,1-2H3
Instrument: Q Exactive Plus
Instrument type: LC-ESI-QFT
Ms type: MS2
Ion mode: POSITIVE
Ionization: ESI
Fragmentation mode: HCD
Collision energy: 75 % (nominal)
Resolution: 15000
Column name: XBridge C18 3.5um, 2.1x50mm, Waters
Retention time: 13.597 min
Base peak: 384.142
Precursor m/z: 384.1417
Precursor type: [M+H]+
Precursor intensity: 286626437.05
m/z	relative intensity	assigned
55.0178	13	C3H3O+
57.0699	34	C4H9+
65.0386	368	C5H5+
75.0229	19	C6H3+
91.0543	999	C7H7+
92.0258	12	C6H4O+
93.0335	19	C6H5O+
94.0415	12	C6H6O+
95.0491	10	C6H7O+
111.0441	25	C6H7O2+
119.0492	37	C8H7O+
121.0284	21	C7H5O2+
131.0492	26	C9H7O+
141.0573	113	C10H7N+
147.029	16	C6H4F3N+
158.06	35	C10H8NO+
164.0317	189	C6H5F3NO+
167.0732	18	C12H9N+
168.0446	24	C11H6NO+
169.0521	17	C11H7NO+
179.0188	63	C6H4F3NO2+
180.038	13	C10H6F2O+
185.0447	11	C9H6F3N+
188.0506	23	C11H7FNO+
190.0462	61	C11H6F2N+
198.0528	45	C10H7F3N+
209.0446	17	C11H6F3N+
210.0525	22	C11H7F3N+
211.0607	29	C11H8F3N+
218.0414	118	C12H6F2NO+
226.0473	22	C11H7F3NO+
227.0553	149	C11H8F3NO+
235.06	16	C13H8F3N+
236.0681	10	C13H9F3N+
238.0474	444	C12H7F3NO+
254.0423	230	C12H7F3NO2+
254.0774	14	C16H10F2N+
256.0581	20	C12H9F3NO2+
