Mass spectrum: 8-Hydroxymirtazapine; LC-ESI-QFT; MS2; CE: 45%; R=17500; [M+H]+
Name: 8-Hydroxymirtazapine
Name: 5-methyl-2,5,19-triazatetracyclo[13.4.0.02,7.08,13]nonadeca-1(15),8,10,12,16,18-hexaen-17-ol
Formula: C17H19N3O
Exact mass: 281.1528122
SMILES: CN1CCN2C(C1)C3=CC=CC=C3CC4=CC(=CN=C42)O
InChI: InChI=1S/C17H19N3O/c1-19-6-7-20-16(11-19)15-5-3-2-4-12(15)8-13-9-14(21)10-18-17(13)20/h2-5,9-10,16,21H,6-8,11H2,1H3
Instrument: Exploris 240 Orbitrap Thermo Scientific
Instrument type: LC-ESI-QFT
Ms type: MS2
Ion mode: POSITIVE
Ionization: ESI
Fragmentation mode: HCD
Collision energy: 45 % (nominal)
Resolution: 17500
Column name: XBridge C18 3.5um, 2.1x50mm, Waters
Retention time: 3.696 min
Base peak: 282.1597
Precursor m/z: 282.1601
Precursor type: [M+H]+
m/z	relative intensity	assigned
58.0651	15	C3H8N+
70.0651	32	C4H8N+
72.0807	712	C4H10N+
144.0811	6	C10H10N+
211.0866	999	C13H11N2O+
225.1025	177	C14H13N2O+
239.118	69	C15H15N2O+
251.1177	88	C16H15N2O+
280.1443	34	C17H18N3O+
282.1601	438	C17H20N3O+
