Mass spectrum: Profenofos; LC-ESI-QFT; MS2; CE: 90%; R=15000; [M+H]+
Name: Profenofos
Name: 4-bromo-2-chloro-1-[ethoxy(propylsulfanyl)phosphoryl]oxybenzene
Formula: C11H15BrClO3PS
Exact mass: 371.9351418
SMILES: CCCSP(=O)(OCC)OC1=C(C=C(C=C1)Br)Cl
InChI: InChI=1S/C11H15BrClO3PS/c1-3-7-18-17(14,15-4-2)16-11-6-5-9(12)8-10(11)13/h5-6,8H,3-4,7H2,1-2H3
Instrument: Exploris 240 Thermo Scientific
Instrument type: LC-ESI-QFT
Ms type: MS2
Ion mode: POSITIVE
Ionization: ESI
Fragmentation mode: HCD
Collision energy: 90 % (nominal)
Resolution: 15000
Column name: XBridge C18 3.5um, 2.1x50mm, Waters
Retention time: 13.098 min
Base peak: 374.9398
Precursor m/z: 372.9424
Precursor type: [M+H]+
m/z	relative intensity	assigned
62.9454	29	PS+
64.9785	66	H2O2P+
78.9401	53	OPS+
96.0028	31	C5H4S+
96.9507	361	H2O2PS+
98.9844	41	CH4ClO3+
100.0076	39	C5H5Cl+
109.0106	46	C6H5S+
114.9612	365	H4O3PS+
128.0022	999	C5H5O2P+
143.9794	469	C5H5OPS+
158.9438	342	C5H4BrO+
174.921	33	C5H4BrS+
176.9102	138	C4H3BrOP+
185.913	22	C6H3BrS+
186.939	147	C6H4BrO2+
204.9044	53	C5H3BrO2P+
205.9126	59	C6H4BrClO+
220.8819	73	C5H3BrOPS+
