Mass spectrum: Nevirapine; LC-ESI-QFT; MS2; CE: 75%; R=17500; [M+H]+
Name: Nevirapine
Name: 2-cyclopropyl-7-methyl-2,4,9,15-tetrazatricyclo[9.4.0.03,8]pentadeca-1(11),3,5,7,12,14-hexaen-10-one
Formula: C15H14N4O
Exact mass: 266.1167611
SMILES: CC1=C2C(=NC=C1)N(C3=C(C=CC=N3)C(=O)N2)C4CC4
InChI: InChI=1S/C15H14N4O/c1-9-6-8-17-14-12(9)18-15(20)11-3-2-7-16-13(11)19(14)10-4-5-10/h2-3,6-8,10H,4-5H2,1H3,(H,18,20)
Instrument: Exploris 240 Orbitrap Thermo Scientific
Instrument type: LC-ESI-QFT
Ms type: MS2
Ion mode: POSITIVE
Ionization: ESI
Fragmentation mode: HCD
Collision energy: 75 % (nominal)
Resolution: 17500
Column name: XBridge C18 3.5um, 2.1x50mm, Waters
Retention time: 4.746 min
Base peak: 267.1236
Precursor m/z: 267.124
Precursor type: [M+H]+
m/z	relative intensity	assigned
53.0386	92	C4H5+
78.034	54	C5H4N+
79.0418	16	C5H5N+
80.0495	603	C5H6N+
94.0528	17	C5H6N2+
105.045	50	C6H5N2+
107.0603	339	C6H7N2+
108.0685	65	C6H8N2+
125.0707	20	C6H9N2O+
131.0606	80	C8H7N2+
144.0684	50	C9H8N2+
145.0759	24	C9H9N2+
147.0924	21	C9H11N2+
158.071	24	C9H8N3+
159.0549	19	C9H7N2O+
160.0631	47	C9H8N2O+
161.0709	75	C9H9N2O+
170.0717	29	C10H8N3+
171.0797	29	C10H9N3+
182.0715	62	C11H8N3+
183.0796	62	C11H9N3+
184.0871	237	C11H10N3+
197.0815	170	C11H9N4+
198.0666	60	C11H8N3O+
198.0896	423	C11H10N4+
199.0973	20	C11H11N4+
209.0822	25	C12H9N4+
210.0662	87	C12H8N3O+
211.0986	32	C12H11N4+
212.0827	22	C12H10N3O+
223.0987	66	C13H11N4+
225.0767	148	C12H9N4O+
226.0848	999	C12H10N4O+
227.0927	589	C12H11N4O+
237.0766	102	C13H9N4O+
249.1147	46	C15H13N4+
250.0976	23	C15H12N3O+
251.0926	150	C14H11N4O+
252.1006	31	C14H12N4O+
267.1247	139	C15H15N4O+
