Mass spectrum: Lercanidipine; LC-ESI-QFT; MS2; CE: 60%; R=17500; [M+H]+
Name: Lercanidipine
Name: 5-O-[1-[3,3-diphenylpropyl(methyl)amino]-2-methylpropan-2-yl] 3-O-methyl 2,6-dimethyl-4-(3-nitrophenyl)-1,4-dihydropyridine-3,5-dicarboxylate
Formula: C36H41N3O6
Exact mass: 611.299536032
SMILES: CC1=C(C(C(=C(N1)C)C(=O)OC(C)(C)CN(C)CCC(C2=CC=CC=C2)C3=CC=CC=C3)C4=CC(=CC=C4)[N+](=O)[O-])C(=O)OC
InChI: InChI=1S/C36H41N3O6/c1-24-31(34(40)44-6)33(28-18-13-19-29(22-28)39(42)43)32(25(2)37-24)35(41)45-36(3,4)23-38(5)21-20-30(26-14-9-7-10-15-26)27-16-11-8-12-17-27/h7-19,22,30,33,37H,20-21,23H2,1-6H3
Instrument: Exploris 240 Orbitrap Thermo Scientific
Instrument type: LC-ESI-QFT
Ms type: MS2
Ion mode: POSITIVE
Ionization: ESI
Fragmentation mode: HCD
Collision energy: 60 % (nominal)
Resolution: 17500
Column name: XBridge C18 3.5um, 2.1x50mm, Waters
Retention time: 11.139 min
Base peak: 132.9582
Precursor m/z: 612.3068
Precursor type: [M+H]+
m/z	relative intensity	assigned
67.0179	29	C4H3O+
70.065	52	C4H8N+
84.0809	10	C5H10N+
85.0884	18	C5H11N+
86.0964	106	C5H12N+
91.0542	738	C7H7+
98.0965	31	C6H12N+
100.112	999	C6H14N+
115.0541	56	C9H7+
117.0698	193	C9H9+
152.0627	37	C12H8+
165.0693	70	C13H9+
166.0775	21	C13H10+
167.0854	611	C13H11+
208.0763	17	C14H10NO+
209.0833	34	C14H11NO+
211.0996	34	C14H13NO+
226.0859	117	C14H12NO2+
236.0714	27	C15H10NO2+
254.0806	92	C15H12NO3+
267.0894	50	C16H13NO3+
268.0965	89	C16H14NO3+
269.1045	199	C16H15NO3+
280.2061	22	C20H26N+
283.0722	47	C15H11N2O4+
298.0955	65	C16H14N2O4+
315.0977	102	C16H15N2O5+
