Mass spectrum: Nimesulide; LC-ESI-QFT; MS2; CE: 60%; R=17500; [M-H]-
Name: Nimesulide
Name: N-(4-nitro-2-phenoxyphenyl)methanesulfonamide
Formula: C13H12N2O5S
Exact mass: 308.046692484
SMILES: CS(=O)(=O)NC1=C(C=C(C=C1)[N+](=O)[O-])OC2=CC=CC=C2
InChI: InChI=1S/C13H12N2O5S/c1-21(18,19)14-12-8-7-10(15(16)17)9-13(12)20-11-5-3-2-4-6-11/h2-9,14H,1H3
Instrument: Exploris 240 Orbitrap Thermo Scientific
Instrument type: LC-ESI-QFT
Ms type: MS2
Ion mode: NEGATIVE
Ionization: ESI
Fragmentation mode: HCD
Collision energy: 60 % (nominal)
Resolution: 17500
Column name: XBridge C18 3.5um, 2.1x50mm, Waters
Retention time: 7.689 min
Base peak: 307.0393
Precursor m/z: 307.0394
Precursor type: [M-H]-
m/z	relative intensity	assigned
63.9624	320	O2S-
76.0193	9	C5H2N-
78.9859	780	CH3O2S-
79.019	53	C5H3O-
121.0169	10	C6H3NO2-
122.0248	433	C6H4NO2-
142.0662	179	C10H8N-
152.0223	21	C6H4N2O3-
170.0611	177	C11H8NO-
182.0605	12	C12H8NO-
183.0689	20	C12H9NO-
197.0491	29	C12H7NO2-
198.056	615	C12H8NO2-
199.0637	124	C12H9NO2-
227.0462	207	C12H7N2O3-
228.0539	211	C12H8N2O3-
229.0618	999	C12H9N2O3-
