Mass spectrum: Acitretin; LC-ESI-QFT; MS2; CE: 15%; R=15000; [M+H]+
Name: Acitretin
Name: 9-(4-Methoxy-2,3,6-trimethylphenyl)-3,7-dimethyl-2,4,6,8-nonatetraenoic acid
Name: 9-(4-methoxy-2,3,6-trimethylphenyl)-3,7-dimethylnona-2,4,6,8-tetraenoic acid
Formula: C21H26O3
Exact mass: 326.1881947
SMILES: CC1=CC(=C(C(=C1C=CC(=CC=CC(=CC(=O)O)C)C)C)C)OC
InChI: InChI=1S/C21H26O3/c1-14(8-7-9-15(2)12-21(22)23)10-11-19-16(3)13-20(24-6)18(5)17(19)4/h7-13H,1-6H3,(H,22,23)
Instrument: Exploris 240 Thermo Scientific
Instrument type: LC-ESI-QFT
Ms type: MS2
Ion mode: POSITIVE
Ionization: ESI
Fragmentation mode: HCD
Collision energy: 15 % (nominal)
Resolution: 15000
Column name: XBridge C18 3.5um, 2.1x50mm, Waters
Retention time: 15.918 min
Base peak: 327.1949
Precursor m/z: 327.1955
Precursor type: [M+H]+
m/z	relative intensity	assigned
151.1114	132	C10H15O+
159.0801	60	C11H11O+
177.0905	556	C11H13O2+
267.1736	49	C19H23O+
309.1845	414	C21H25O2+
327.1949	999	C21H27O3+
