Mass spectrum: PFECHS; LC-ESI-QFT; MS2; CE: 150%; R=17500; [M-H]-
Name: PFECHS
Name: 1,2,2,3,3,4,5,5,6,6-decafluoro-4-(1,1,2,2,2-pentafluoroethyl)cyclohexane-1-sulfonic acid
Formula: C8HF15O3S
Exact mass: 461.940688192
SMILES: C1(C(C(C(C(C1(F)F)(F)F)(F)S(=O)(=O)O)(F)F)(F)F)(C(C(F)(F)F)(F)F)F
InChI: InChI=1S/C8HF15O3S/c9-1(4(14,15)8(21,22)23)2(10,11)5(16,17)7(20,27(24,25)26)6(18,19)3(1,12)13/h(H,24,25,26)
Instrument: Exploris 240 Orbitrap Thermo Scientific
Instrument type: LC-ESI-QFT
Ms type: MS2
Ion mode: NEGATIVE
Ionization: ESI
Fragmentation mode: HCD
Collision energy: 150 % (nominal)
Resolution: 17500
Column name: XBridge C18 3.5um, 2.1x50mm, Waters
Retention time: 9.323 min
Base peak: 460.9331
Precursor m/z: 460.9334
Precursor type: [M-H]-
m/z	relative intensity	assigned
68.9959	128	CF3-
98.9558	999	FO3S-
