Mass spectrum: Suberoylanilide hydroxamic acid; LC-ESI-QFT; MS2; CE: 45%; R=15000; [M+H]+
Name: Suberoylanilide hydroxamic acid
Name: Vorinostat
Name: N`-hydroxy-N-phenyloctanediamide
Formula: C14H20N2O3
Exact mass: 264.1473925
SMILES: C1=CC=C(C=C1)NC(=O)CCCCCCC(=O)NO
InChI: InChI=1S/C14H20N2O3/c17-13(15-12-8-4-3-5-9-12)10-6-1-2-7-11-14(18)16-19/h3-5,8-9,19H,1-2,6-7,10-11H2,(H,15,17)(H,16,18)
Instrument: Exploris 240 Thermo Scientific
Instrument type: LC-ESI-QFT
Ms type: MS2
Ion mode: POSITIVE
Ionization: ESI
Fragmentation mode: HCD
Collision energy: 45 % (nominal)
Resolution: 15000
Column name: XBridge C18 3.5um, 2.1x50mm, Waters
Retention time: 4.916 min
Base peak: 265.1544
Precursor m/z: 265.1547
Precursor type: [M+H]+
m/z	relative intensity	assigned
55.0179	57	C3H3O+
55.0542	319	C4H7+
58.0653	18	C3H8N+
61.0285	41	C2H5O2+
69.0335	18	C4H5O+
69.0698	161	C5H9+
79.0541	61	C6H7+
81.0699	46	C6H9+
83.0854	425	C6H11+
84.0809	18	C5H10N+
85.1011	50	C6H13+
91.0541	19	C7H7+
92.0495	17	C6H6N+
93.0697	180	C7H9+
94.065	819	C6H8N+
95.0855	121	C7H11+
97.065	29	C6H9O+
98.0967	39	C6H12N+
102.0913	18	C5H12NO+
104.0495	18	C7H6N+
108.0808	34	C7H10N+
109.0648	17	C7H9O+
111.0803	319	C7H11O+
120.0443	262	C7H6NO+
121.0647	150	C8H9O+
126.0911	54	C7H12NO+
132.081	28	C9H10N+
139.0752	606	C8H11O2+
144.1019	138	C7H14NO2+
154.0863	122	C8H12NO2+
157.0859	104	C8H13O3+
172.0969	131	C8H14NO3+
204.138	180	C13H18NO+
214.1223	43	C14H16NO+
232.1329	999	C14H18NO2+
