Mass spectrum: 7-3-FTCA; LC-ESI-QFT; MS2; CE: 60%; R=17500; [M-H]-
Name: 7-3-FTCA
Name: 2H,2H,3H,3H-Perfluorodecanoic acid
Name: 4,4,5,5,6,6,7,7,8,8,9,9,10,10,10-pentadecafluorodecanoic acid
Formula: C10H5F15O2
Exact mass: 442.0050027
SMILES: C(CC(C(C(C(C(C(C(F)(F)F)(F)F)(F)F)(F)F)(F)F)(F)F)(F)F)C(=O)O
InChI: InChI=1S/C10H5F15O2/c11-4(12,2-1-3(26)27)5(13,14)6(15,16)7(17,18)8(19,20)9(21,22)10(23,24)25/h1-2H2,(H,26,27)
Instrument: Exploris 240 Orbitrap Thermo Scientific
Instrument type: LC-ESI-QFT
Ms type: MS2
Ion mode: NEGATIVE
Ionization: ESI
Fragmentation mode: HCD
Collision energy: 60 % (nominal)
Resolution: 17500
Column name: XBridge C18 3.5um, 2.1x50mm, Waters
Retention time: 13.868 min
Base peak: 440.9973
Precursor m/z: 440.9977
Precursor type: [M-H]-
m/z	relative intensity	assigned
62.9887	153	CFO2-
92.9957	85	C3F3-
97.9977	23	C5F2-
116.9958	42	C5F3-
166.9924	51	C6F5-
197.9907	119	C7F6-
216.9891	52	C7F7-
242.9871	48	C3HF10O-
266.9861	999	C8F9-
316.9829	631	C9F11-
