Mass spectrum: Cyprodinil-TP-CGA-275535; LC-ESI-QFT; MS2; CE: 25%; R=15000; [M+H]+
Name: Cyprodinil-TP-CGA-275535
Name: 3-[(4-Cyclopropyl-6-methyl-2-pyrimidinyl)amino]phenol
Name: 3-[(4-cyclopropyl-6-methylpyrimidin-2-yl)amino]phenol
Formula: C14H15N3O
Exact mass: 241.1215121
SMILES: CC1=NC(=NC(=C1)C2CC2)NC3=CC=CC(=C3)O
InChI: InChI=1S/C14H15N3O/c1-9-7-13(10-5-6-10)17-14(15-9)16-11-3-2-4-12(18)8-11/h2-4,7-8,10,18H,5-6H2,1H3,(H,15,16,17)
Instrument: Exploris 240 Thermo Scientific
Instrument type: LC-ESI-QFT
Ms type: MS2
Ion mode: POSITIVE
Ionization: ESI
Fragmentation mode: HCD
Collision energy: 25 % (nominal)
Resolution: 15000
Column name: XBridge C18 3.5um, 2.1x50mm, Waters
Retention time: 5.417 min
Base peak: 242.1283
Precursor m/z: 242.1288
Precursor type: [M+H]+
m/z	relative intensity	assigned
108.0807	12	C7H10N+
133.076	13	C8H9N2+
242.1284	999	C14H16N3O+
