Mass spectrum: Iprovalicarb; LC-ESI-QFT; MS2; CE: 180%; R=15000; [M+H]+
Name: Iprovalicarb
Name: Isopropyl (3-methyl-1-{[1-(4-methylphenyl)ethyl]amino}-1-oxobutan-2-yl)carbamate
Name: propan-2-yl N-[3-methyl-1-[1-(4-methylphenyl)ethylamino]-1-oxobutan-2-yl]carbamate
Formula: C18H28N2O3
Exact mass: 320.2099928
SMILES: CC1=CC=C(C=C1)C(C)NC(=O)C(C(C)C)NC(=O)OC(C)C
InChI: InChI=1S/C18H28N2O3/c1-11(2)16(20-18(22)23-12(3)4)17(21)19-14(6)15-9-7-13(5)8-10-15/h7-12,14,16H,1-6H3,(H,19,21)(H,20,22)
Instrument: Exploris 240 Thermo Scientific
Instrument type: LC-ESI-QFT
Ms type: MS2
Ion mode: POSITIVE
Ionization: ESI
Fragmentation mode: HCD
Collision energy: 180 % (nominal)
Resolution: 15000
Column name: XBridge C18 3.5um, 2.1x50mm, Waters
Retention time: 9.865 min
Base peak: 321.2171
Precursor m/z: 321.2173
Precursor type: [M+H]+
m/z	relative intensity	assigned
50.0151	110	C4H2+
51.0229	390	C4H3+
55.0543	65	C4H7+
56.0496	34	C3H6N+
57.0573	80	C3H7N+
65.0385	999	C5H5+
77.0386	484	C6H5+
78.0464	351	C6H6+
91.0542	762	C7H7+
95.0491	402	C6H7O+
102.0466	36	C8H6+
103.0542	264	C8H7+
104.062	89	C8H8+
105.0446	188	C6H5N2+
115.0541	141	C9H7+
