Mass spectrum: Prothioconazole; LC-ESI-QFT; MS2; CE: 75%; R=15000; [M+H]+
Name: Prothioconazole
Name: 2-[2-(1-chlorocyclopropyl)-3-(2-chlorophenyl)-2-hydroxypropyl]-1H-1,2,4-triazole-3-thione
Formula: C14H15Cl2N3OS
Exact mass: 343.0312885
SMILES: C1CC1(C(CC2=CC=CC=C2Cl)(CN3C(=S)N=CN3)O)Cl
InChI: InChI=1S/C14H15Cl2N3OS/c15-11-4-2-1-3-10(11)7-14(20,13(16)5-6-13)8-19-12(21)17-9-18-19/h1-4,9,20H,5-8H2,(H,17,18,21)
Instrument: Exploris 240 Thermo Scientific
Instrument type: LC-ESI-QFT
Ms type: MS2
Ion mode: POSITIVE
Ionization: ESI
Fragmentation mode: HCD
Collision energy: 75 % (nominal)
Resolution: 15000
Column name: XBridge C18 3.5um, 2.1x50mm, Waters
Retention time: 11.770 min
Base peak: 344.0382
Precursor m/z: 344.0386
Precursor type: [M+H]+
m/z	relative intensity	assigned
55.029	97	C2H3N2+
89.0387	30	C7H5+
102.0119	327	C2H4N3S+
114.0119	140	C3H4N3S+
115.0542	21	C9H7+
125.0151	999	C7H6Cl+
128.0619	144	C10H8+
149.015	210	C9H6Cl+
152.0617	146	CH15ClN3OS+
153.0697	541	CH16ClN3OS+
154.0775	616	C12H10+
155.0607	49	C10H7N2+
155.0854	136	C12H11+
158.9759	41	C7H5Cl2+
162.0228	287	C10H7Cl+
163.0306	46	C10H8Cl+
166.043	195	C7H8N3S+
175.031	38	C11H8Cl+
