Mass spectrum: 8-Hydroxymirtazapine; LC-ESI-QFT; MS2; CE: 60%; R=17500; [M+H]+
Name: 8-Hydroxymirtazapine
Name: 5-methyl-2,5,19-triazatetracyclo[13.4.0.02,7.08,13]nonadeca-1(15),8,10,12,16,18-hexaen-17-ol
Formula: C17H19N3O
Exact mass: 281.1528122
SMILES: CN1CCN2C(C1)C3=CC=CC=C3CC4=CC(=CN=C42)O
InChI: InChI=1S/C17H19N3O/c1-19-6-7-20-16(11-19)15-5-3-2-4-12(15)8-13-9-14(21)10-18-17(13)20/h2-5,9-10,16,21H,6-8,11H2,1H3
Instrument: Exploris 240 Orbitrap Thermo Scientific
Instrument type: LC-ESI-QFT
Ms type: MS2
Ion mode: POSITIVE
Ionization: ESI
Fragmentation mode: HCD
Collision energy: 60 % (nominal)
Resolution: 17500
Column name: XBridge C18 3.5um, 2.1x50mm, Waters
Retention time: 3.696 min
Base peak: 282.1597
Precursor m/z: 282.1601
Precursor type: [M+H]+
m/z	relative intensity	assigned
58.0651	32	C3H8N+
70.0652	33	C4H8N+
72.0807	390	C4H10N+
91.0542	5	C7H7+
108.0443	15	C6H6NO+
115.0543	12	C9H7+
117.0697	5	C9H9+
123.0551	6	C6H7N2O+
144.0809	14	C10H10N+
149.071	13	C8H9N2O+
166.0654	13	C12H8N+
170.0966	4	C12H12N+
196.0759	14	C13H10NO+
198.0911	8	C13H12NO+
211.0866	999	C13H11N2O+
223.0872	7	C14H11N2O+
225.1024	151	C14H13N2O+
235.0868	9	C15H11N2O+
239.118	36	C15H15N2O+
251.118	54	C16H15N2O+
253.1346	4	C16H17N2O+
280.1456	15	C17H18N3O+
282.1604	27	C17H20N3O+
