Mass spectrum: Abacavir; LC-ESI-QFT; MS2; CE: 75%; R=17500; [M+H]+
Name: Abacavir
Name: {4-[2-amino-6-(cyclopropylamino)-9H-purin-9-yl]cyclopent-2-en-1-yl}methanol
Name: [4-[2-amino-6-(cyclopropylamino)purin-9-yl]cyclopent-2-en-1-yl]methanol
Formula: C14H18N6O
Exact mass: 286.1542092
SMILES: C1CC1NC2=C3C(=NC(=N2)N)N(C=N3)C4CC(C=C4)CO
InChI: InChI=1S/C14H18N6O/c15-14-18-12(17-9-2-3-9)11-13(19-14)20(7-16-11)10-4-1-8(5-10)6-21/h1,4,7-10,21H,2-3,5-6H2,(H3,15,17,18,19)
Instrument: Exploris 240 Orbitrap Thermo Scientific
Instrument type: LC-ESI-QFT
Ms type: MS2
Ion mode: POSITIVE
Ionization: ESI
Fragmentation mode: HCD
Collision energy: 75 % (nominal)
Resolution: 17500
Column name: XBridge C18 3.5um, 2.1x50mm, Waters
Retention time: 3.267 min
Base peak: 287.1609
Precursor m/z: 287.1615
Precursor type: [M+H]+
m/z	relative intensity	assigned
56.0496	17	C3H6N+
58.0651	328	C3H8N+
67.0542	129	C5H7+
77.0385	123	C6H5+
79.0542	906	C6H7+
82.0401	8	C3H4N3+
95.0494	39	C6H7O+
97.0647	16	C6H9O+
105.0448	59	C6H5N2+
107.0356	32	C4H3N4+
108.0432	12	C4H4N4+
108.056	11	C5H6N3+
109.0507	229	C4H5N4+
119.0352	18	C5H3N4+
120.0557	16	C6H6N3+
122.071	43	C6H8N3+
132.0561	21	C7H6N3+
134.0461	495	C5H4N5+
136.0618	40	C5H6N5+
137.0456	21	C5H5N4O+
147.0665	59	C7H7N4+
149.0822	164	C7H9N4+
150.0647	999	C5H6N6+
163.0723	64	C6H7N6+
164.0931	94	C7H10N5+
174.0773	591	C8H8N5+
191.104	914	C8H11N6+
