Mass spectrum: Oxazepam; LC-ESI-QFT; MS2; CE: 75%; R=15000; [M+H]+
Name: Oxazepam
Name: 7-chloro-3-hydroxy-5-phenyl-1,3-dihydro-1,4-benzodiazepin-2-one
Formula: C15H11ClN2O2
Exact mass: 286.0509053
SMILES: OC1N=C(C2=CC=CC=C2)C2=CC(Cl)=CC=C2NC1=O
InChI: InChI=1S/C15H11ClN2O2/c16-10-6-7-12-11(8-10)13(9-4-2-1-3-5-9)18-15(20)14(19)17-12/h1-8,15,20H,(H,17,19)
Instrument: Q Exactive Plus
Instrument type: LC-ESI-QFT
Ms type: MS2
Ion mode: POSITIVE
Ionization: ESI
Fragmentation mode: HCD
Collision energy: 75 % (nominal)
Resolution: 15000
Column name: XBridge C18 3.5um, 2.1x50mm, Waters
Retention time: 7.837 min
Base peak: 287.0581
Precursor m/z: 287.0582
Precursor type: [M+H]+
Precursor intensity: 396230952
m/z	relative intensity	assigned
51.0229	13	C4H3+
53.0385	28	C4H5+
77.0385	22	C6H5+
79.0542	20	C6H7+
90.0339	11	C6H4N+
93.0573	286	C6H7N+
95.0491	104	C6H7O+
104.0494	999	C7H6N+
105.0449	23	C6H5N2+
118.0524	86	C7H6N2+
126.0104	39	C6H5ClN+
128.0261	141	C6H7ClN+
129.0102	32	C6H6ClO+
138.0105	135	C7H5ClN+
139.0056	45	C6H4ClN2+
152.0135	11	C7H5ClN2+
152.0618	14	C12H8+
153.0213	164	C7H6ClN2+
163.0056	415	C8H4ClN2+
164.001	50	C10N2O+
166.0054	28	C8H5ClNO+
179.0731	16	C13H9N+
195.0915	44	C13H11N2+
205.076	67	C14H9N2+
206.0839	20	C14H10N2+
207.0679	18	C14H9NO+
214.042	37	C13H9ClN+
229.0527	52	C13H10ClN2+
231.0681	21	C13H12ClN2+
239.0371	12	C14H8ClN2+
241.0525	843	C14H10ClN2+
257.047	36	C14H10ClN2O+
