Mass spectrum: Meropenem; LC-ESI-QFT; MS2; CE: 45%; R=15000; [M+H]+
Name: Meropenem
Name: 3-[5-(dimethylcarbamoyl)pyrrolidin-3-yl]sulfanyl-6-(1-hydroxyethyl)-4-methyl-7-oxo-1-azabicyclo[3.2.0]hept-2-ene-2-carboxylic acid
Formula: C17H25N3O5S
Exact mass: 383.1514919
SMILES: CC1C2C(C(=O)N2C(=C1SC3CC(NC3)C(=O)N(C)C)C(=O)O)C(C)O
InChI: InChI=1S/C17H25N3O5S/c1-7-12-11(8(2)21)16(23)20(12)13(17(24)25)14(7)26-9-5-10(18-6-9)15(22)19(3)4/h7-12,18,21H,5-6H2,1-4H3,(H,24,25)
Instrument: Exploris 240 Thermo Scientific
Instrument type: LC-ESI-QFT
Ms type: MS2
Ion mode: POSITIVE
Ionization: ESI
Fragmentation mode: HCD
Collision energy: 45 % (nominal)
Resolution: 15000
Column name: XBridge C18 3.5um, 2.1x50mm, Waters
Retention time: 2.456 min
Base peak: 384.1589
Precursor m/z: 384.1588
Precursor type: [M+H]+
m/z	relative intensity	assigned
68.0495	999	C4H6N+
70.0652	41	C4H8N+
72.0443	65	C3H6NO+
73.0758	19	C3H9N2+
74.0601	13	C3H8NO+
82.065	14	C5H8N+
100.0215	122	C4H6NS+
101.0709	92	C4H9N2O+
112.0217	53	C5H6NS+
114.0372	406	C5H8NS+
124.0757	29	C7H10NO+
126.0913	70	C7H12NO+
140.0166	17	C6H6NOS+
141.1022	212	C7H13N2O+
143.1177	67	C7H15N2O+
152.1073	12	C9H14NO+
158.0269	12	C6H8NO2S+
164.0526	71	C9H10NS+
171.0588	36	C7H11N2OS+
173.0746	44	C7H13N2OS+
181.0793	32	C9H13N2S+
207.0586	48	C10H11N2OS+
254.1322	15	C12H20N3OS+
