Mass spectrum: Phosalone; LC-ESI-QFT; MS2; CE: 30%; R=15000; [M+H]+
Name: Phosalone
Name: 6-chloro-3-(diethoxyphosphinothioylsulfanylmethyl)-1,3-benzoxazol-2-one
Formula: C12H15ClNO4PS2
Exact mass: 366.9868643
SMILES: CCOP(=S)(OCC)SCN1C2=C(C=C(C=C2)Cl)OC1=O
InChI: InChI=1S/C12H15ClNO4PS2/c1-3-16-19(20,17-4-2)21-8-14-10-6-5-9(13)7-11(10)18-12(14)15/h5-7H,3-4,8H2,1-2H3
Instrument: Q Exactive Plus
Instrument type: LC-ESI-QFT
Ms type: MS2
Ion mode: POSITIVE
Ionization: ESI
Fragmentation mode: HCD
Collision energy: 30 % (nominal)
Resolution: 15000
Column name: XBridge C18 3.5um, 2.1x50mm, Waters
Retention time: 12.216 min
Base peak: 367.9946
Precursor m/z: 367.9941
Precursor type: [M+H]+
Precursor intensity: 198975553.66
m/z	relative intensity	assigned
96.9509	11	CH2ClOS+
114.9614	163	H4O3PS+
129.0102	16	C6H6ClO+
138.0106	99	C7H5ClN+
139.0059	23	C3H7O4S+
153.0135	10	C5H10ClOS+
170	12	C10H2O3+
171.024	24	C4H12O3PS+
182.0003	999	C8H5ClNO2+
