Mass spectrum: N-Desmethylrosuvastatin; LC-ESI-QFT; MS2; CE: 150%; R=17500; [M+H]+
Name: N-Desmethylrosuvastatin
Name: 7-[4-(4-fluorophenyl)-2-(methanesulfonamido)-6-propan-2-ylpyrimidin-5-yl]-3,5-dihydroxyhept-6-enoic acid
Formula: C21H26FN3O6S
Exact mass: 467.1526348
SMILES: CC(C)C1=NC(=NC(=C1C=CC(CC(CC(=O)O)O)O)C2=CC=C(C=C2)F)NS(=O)(=O)C
InChI: InChI=1S/C21H26FN3O6S/c1-12(2)19-17(9-8-15(26)10-16(27)11-18(28)29)20(13-4-6-14(22)7-5-13)24-21(23-19)25-32(3,30)31/h4-9,12,15-16,26-27H,10-11H2,1-3H3,(H,28,29)(H,23,24,25)
Instrument: Exploris 240 Orbitrap Thermo Scientific
Instrument type: LC-ESI-QFT
Ms type: MS2
Ion mode: POSITIVE
Ionization: ESI
Fragmentation mode: HCD
Collision energy: 150 % (nominal)
Resolution: 17500
Column name: XBridge C18 3.5um, 2.1x50mm, Waters
Retention time: 5.375 min
Base peak: 468.1593
Precursor m/z: 468.1599
Precursor type: [M+H]+
m/z	relative intensity	assigned
51.0229	107	C4H3+
53.0385	52	C4H5+
54.0338	41	C3H4N+
63.0228	43	C5H3+
65.0385	181	C5H5+
66.0339	37	C4H4N+
67.0543	43	C5H7+
75.0229	349	C6H3+
77.0385	365	C6H5+
78.0339	92	C5H4N+
79.0418	62	C5H5N+
80.0495	102	C5H6N+
83.0292	164	C5H4F+
89.0387	49	C7H5+
90.034	30	C6H4N+
91.0542	122	C7H7+
92.0495	62	C6H6N+
93.0447	41	C5H5N2+
93.0577	37	C6H7N+
94.0652	34	C6H8N+
95.029	241	C6H4F+
95.0493	93	C6H7O+
101.0385	42	C8H5+
103.0541	28	C8H7+
104.0496	83	C7H6N+
105.0445	178	C6H5N2+
106.0652	53	C7H8N+
107.0295	94	C7H4F+
109.045	143	C7H6F+
113.0394	138	C6H6FO+
115.0544	73	C9H7+
117.0448	51	C7H5N2+
117.0568	24	C8H7N+
119.0601	148	C7H7N2+
120.0368	43	C8H5F+
121.0453	30	C8H6F+
122.0399	239	C7H5FN+
123.035	439	C3H9NO2S+
129.0449	63	C8H5N2+
132.0372	34	C9H5F+
133.0447	999	C9H6F+
134.0403	45	C8H5FN+
140.0492	42	C10H6N+
145.0447	97	C10H6F+
146.0397	48	C6H10O2S+
146.0525	438	C10H7F+
147.0603	30	C10H8F+
148.0557	36	C9H7FN+
151.054	53	CH12FN2O3S+
152.062	94	C12H8+
155.0606	47	C4H13NO3S+
157.0449	192	C11H6F+
158.0536	57	C2H10N2O6+
159.0608	138	C2H11N2O6+
163.0552	41	C10H8FO+
165.0701	61	C13H9+
172.0554	139	C8H12O2S+
173.0507	172	C7H11NO2S+
184.0547	195	C4H11FN3O2S+
185.0635	497	C4H12FN3O2S+
186.0719	97	C6H15FO3S+
208.0561	63	C14H7FN+
210.058	65	C13H7FN2+
223.0672	113	C8H14FNO3S+
240.0927	34	C11H16N2O2S+
