Mass spectrum: 5-Fluorouracil; LC-ESI-QFT; MS2; CE: 45%; R=15000; [M-H]-
Name: 5-Fluorouracil
Name: Fluorouracil
Name: 5-fluoro-1H-pyrimidine-2,4-dione
Formula: C4H3FN2O2
Exact mass: 130.0178556
SMILES: FC1=CNC(=O)NC1=O
InChI: InChI=1S/C4H3FN2O2/c5-2-1-6-4(9)7-3(2)8/h1H,(H2,6,7,8,9)
Instrument: Q Exactive Plus
Instrument type: LC-ESI-QFT
Ms type: MS2
Ion mode: NEGATIVE
Ionization: ESI
Fragmentation mode: HCD
Collision energy: 45 % (nominal)
Resolution: 15000
Column name: XBridge C18 3.5um, 2.1x50mm, Waters
Retention time: 1.236 min
Base peak: 129.0107
Precursor m/z: 129.0106
Precursor type: [M-H]-
Precursor intensity: 117100922.22
m/z	relative intensity	assigned
129.0106	999	C4H2FN2O2-
