Mass spectrum: Eriodictyol; LC-ESI-QFT; MS2; CE: 150%; R=17500; [M+H]+
Name: Eriodictyol
Name: (+/-)-Eriodictyol
Name: 2-(3,4-dihydroxyphenyl)-5,7-dihydroxy-2,3-dihydrochromen-4-one
Formula: C15H12O6
Exact mass: 288.0633881
SMILES: C1C(OC2=CC(=CC(=C2C1=O)O)O)C3=CC(=C(C=C3)O)O
InChI: InChI=1S/C15H12O6/c16-8-4-11(19)15-12(20)6-13(21-14(15)5-8)7-1-2-9(17)10(18)3-7/h1-5,13,16-19H,6H2
Instrument: Exploris 240 Orbitrap Thermo Scientific
Instrument type: LC-ESI-QFT
Ms type: MS2
Ion mode: POSITIVE
Ionization: ESI
Fragmentation mode: HCD
Collision energy: 150 % (nominal)
Resolution: 17500
Column name: XBridge C18 3.5um, 2.1x50mm, Waters
Retention time: 5.359 min
Base peak: 289.0705
Precursor m/z: 289.0707
Precursor type: [M+H]+
m/z	relative intensity	assigned
50.0152	31	C4H2+
51.0229	170	C4H3+
53.0024	14	C3HO+
53.0386	52	C4H5+
55.0179	112	C3H3O+
62.0151	20	C5H2+
63.0229	635	C5H3+
65.0385	157	C5H5+
67.0179	37	C4H3O+
68.9971	512	C3HO2+
69.0335	117	C4H5O+
77.0386	165	C6H5+
79.0179	47	C5H3O+
79.0542	14	C6H7+
89.0385	999	C7H5+
95.0494	54	C6H7O+
115.0546	33	C9H7+
