Mass spectrum: BifenoxH; LC-ESI-QFT; MS2; CE: 180%; R=15000; [M+H]+
Name: BifenoxH
Name: Bifenox
Name: methyl 5-(2,4-dichlorophenoxy)-2-nitrobenzoate
Formula: C14H9Cl2NO5
Exact mass: 340.9857777
SMILES: COC(=O)C1=C(C=CC(=C1)OC2=C(C=C(C=C2)Cl)Cl)[N+](=O)[O-]
InChI: InChI=1S/C14H9Cl2NO5/c1-21-14(18)10-7-9(3-4-12(10)17(19)20)22-13-5-2-8(15)6-11(13)16/h2-7H,1H3
Instrument: Q Exactive Plus
Instrument type: LC-ESI-QFT
Ms type: MS2
Ion mode: POSITIVE
Ionization: ESI
Fragmentation mode: HCD
Collision energy: 180 % (nominal)
Resolution: 15000
Column name: XBridge C18 3.5um, 2.1x50mm, Waters
Retention time: 12.553 min
Base peak: 164.9845
Precursor m/z: 341.9931
Precursor type: [M+H]+
Precursor intensity: 10833477.93
m/z	relative intensity	assigned
50.0151	41	C4H2+
53.0022	38	C3HO+
62.0151	120	C5H2+
63.0229	164	C5H3+
72.9839	158	C3H2Cl+
74.015	999	C6H2+
75.0104	56	C5HN+
75.0229	133	C6H3+
76.0181	45	C5H2N+
83.9761	14	C4HCl+
86.0151	65	C7H2+
87.0229	65	C7H3+
89.0021	27	C6HO+
90.01	13	C6H2O+
96.9839	34	C5H2Cl+
98.015	29	C8H2+
108.9841	15	C6H2Cl+
137.0386	62	C11H5+
