Mass spectrum: Losartan-carboxylic acid; LC-ESI-QFT; MS2; CE: 30%; R=17500; [M+H]+
Name: Losartan-carboxylic acid
Name: Losartan carboxylic acid
Name: 2-butyl-5-chloro-3-[[4-[2-(2H-tetrazol-5-yl)phenyl]phenyl]methyl]imidazole-4-carboxylic acid
Formula: C22H21ClN6O2
Exact mass: 436.1414516
SMILES: CCCCC1=NC(=C(N1CC2=CC=C(C=C2)C3=CC=CC=C3C4=NNN=N4)C(=O)O)Cl
InChI: InChI=1S/C22H21ClN6O2/c1-2-3-8-18-24-20(23)19(22(30)31)29(18)13-14-9-11-15(12-10-14)16-6-4-5-7-17(16)21-25-27-28-26-21/h4-7,9-12H,2-3,8,13H2,1H3,(H,30,31)(H,25,26,27,28)
Instrument: Exploris 240 Orbitrap Thermo Scientific
Instrument type: LC-ESI-QFT
Ms type: MS2
Ion mode: POSITIVE
Ionization: ESI
Fragmentation mode: HCD
Collision energy: 30 % (nominal)
Resolution: 17500
Column name: XBridge C18 3.5um, 2.1x50mm, Waters
Retention time: 8.222 min
Base peak: 437.1482
Precursor m/z: 437.1487
Precursor type: [M+H]+
m/z	relative intensity	assigned
153.0695	11	C12H9+
171.0677	7	C11H9NO+
178.0778	20	C14H10+
180.0806	98	C13H10N+
185.0475	10	C8H10ClN2O+
190.065	94	C14H8N+
191.0723	10	C14H9N+
192.068	11	C13H8N2+
195.0911	9	C13H11N2+
203.058	62	C8H12ClN2O2+
206.0836	40	C14H10N2+
207.0915	999	C14H11N2+
235.0977	849	C14H11N4+
236.1006	8	C9H12N6O2+
365.1519	6	C21H22ClN4+
391.1324	6	C22H20ClN4O+
