Mass spectrum: Chlorpyrifos; LC-ESI-QFT; MS2; CE: 90%; R=15000; [M+H]+
Name: Chlorpyrifos
Name: diethoxy-sulfanylidene-(3,5,6-trichloropyridin-2-yl)oxy-lambda5-phosphane
Formula: C9H11Cl3NO3PS
Exact mass: 348.9262839
SMILES: CCOP(=S)(OCC)OC1=NC(Cl)=C(Cl)C=C1Cl
InChI: InChI=1S/C9H11Cl3NO3PS/c1-3-14-17(18,15-4-2)16-9-7(11)5-6(10)8(12)13-9/h5H,3-4H2,1-2H3
Instrument: Q Exactive Plus
Instrument type: LC-ESI-QFT
Ms type: MS2
Ion mode: POSITIVE
Ionization: ESI
Fragmentation mode: HCD
Collision energy: 90 % (nominal)
Resolution: 15000
Column name: XBridge C18 3.5um, 2.1x50mm, Waters
Retention time: 14.392 min
Base peak: 349.9338
Precursor m/z: 349.9336
Precursor type: [M+H]+
Precursor intensity: 86352622.98
m/z	relative intensity	assigned
64.9787	158	H2O2P+
78.9401	28	OPS+
96.9508	69	H2O2PS+
106.945	450	C3HCl2+
114.9613	999	H4O3PS+
118.945	18	C4HCl2+
133.9559	221	C4H2Cl2N+
150.917	35	C4HCl2S+
161.9508	24	C5H2Cl2NO+
177.9275	12	C4H2ClNOPS+
179.9169	49	C5HCl3N+
179.9614	70	C5H4Cl2NO2+
197.9275	113	C5H3Cl3NO+
