Mass spectrum: Sulfurol; LC-ESI-QFT; MS2; CE: 150%; R=17500; [M+H]+
Name: Sulfurol
Name: 4-Methyl-5-thiazoleethanol
Name: 2-(4-methyl-1,3-thiazol-5-yl)ethanol
Formula: C6H9NOS
Exact mass: 143.0404849
SMILES: CC1=C(SC=N1)CCO
InChI: InChI=1S/C6H9NOS/c1-5-6(2-3-8)9-4-7-5/h4,8H,2-3H2,1H3
Instrument: Exploris 240 Orbitrap Thermo Scientific
Instrument type: LC-ESI-QFT
Ms type: MS2
Ion mode: POSITIVE
Ionization: ESI
Fragmentation mode: HCD
Collision energy: 150 % (nominal)
Resolution: 17500
Column name: XBridge C18 3.5um, 2.1x50mm, Waters
Retention time: 1.742 min
Base peak: 144.0476
Precursor m/z: 144.0478
Precursor type: [M+H]+
m/z	relative intensity	assigned
42.0338	119	C2H4N+
44.9794	76	CHS+
46.995	8	CH3S+
52.0309	9	C4H4+
53.0386	84	C4H5+
54.0338	47	C3H4N+
55.0417	77	C3H5N+
55.0543	63	C4H7+
58.995	98	C2H3S+
65.0386	132	C5H5+
66.0463	9	C5H6+
68.0494	39	C4H6N+
69.0573	42	C4H7N+
70.995	558	C3H3S+
72.0028	165	C3H4S+
73.0108	7	C3H5S+
78.0337	17	C5H4N+
80.0495	246	C5H6N+
81.0573	22	C5H7N+
84.0028	18	C4H4S+
85.0106	199	C4H5S+
86.0184	81	C4H6S+
94.9949	9	C5H3S+
96.0028	8	C5H4S+
97.0106	12	C5H5S+
98.006	46	C4H4NS+
99.0263	22	C5H7S+
112.0216	999	C5H6NS+
113.0294	669	C5H7NS+
126.0375	49	C6H8NS+
