Mass spectrum: 4-Hydroxypropanolol-sulfate; LC-ESI-QFT; MS2; CE: 45%; R=17500; [M+H]+
Name: 4-Hydroxypropanolol-sulfate
Name: 4-[2-Hydroxy-3-(propan-2-ylamino)propoxy]naphthalen-1-yl hydrogen sulfate
Name: [4-[2-hydroxy-3-(propan-2-ylamino)propoxy]naphthalen-1-yl] hydrogen sulfate
Name: HOPS
Formula: C16H21NO6S
Exact mass: 355.1089584
SMILES: CC(C)NCC(COC1=CC=C(C2=CC=CC=C21)OS(=O)(=O)O)O
InChI: InChI=1S/C16H21NO6S/c1-11(2)17-9-12(18)10-22-15-7-8-16(23-24(19,20)21)14-6-4-3-5-13(14)15/h3-8,11-12,17-18H,9-10H2,1-2H3,(H,19,20,21)
Instrument: Exploris 240 Orbitrap Thermo Scientific
Instrument type: LC-ESI-QFT
Ms type: MS2
Ion mode: POSITIVE
Ionization: ESI
Fragmentation mode: HCD
Collision energy: 45 % (nominal)
Resolution: 17500
Column name: XBridge C18 3.5um, 2.1x50mm, Waters
Retention time: 3.203 min
Base peak: 356.1162
Precursor m/z: 356.1162
Precursor type: [M+H]+
m/z	relative intensity	assigned
56.0495	184	C3H6N+
58.0651	790	C3H8N+
60.0808	52	C3H10N+
72.0808	454	C4H10N+
74.06	224	C3H8NO+
84.0806	12	C5H10N+
86.0965	110	C5H12N+
98.0964	222	C6H12N+
100.1121	55	C6H14N+
116.107	999	C6H14NO+
132.1022	22	C6H14NO2+
145.0648	25	C10H9O+
153.07	8	C12H9+
157.0647	49	C11H9O+
159.0437	21	C10H7O2+
171.0804	78	C12H11O+
173.0598	302	C11H9O2+
181.0651	34	C13H9O+
199.0754	280	C13H11O2+
234.1128	35	C13H16NO3+
258.1494	17	C16H20NO2+
276.1595	454	C16H22NO3+
