Mass spectrum: Meropenem; LC-ESI-QFT; MS2; CE: 15%; R=15000; [M-H]-
Name: Meropenem
Name: 3-[5-(dimethylcarbamoyl)pyrrolidin-3-yl]sulfanyl-6-(1-hydroxyethyl)-4-methyl-7-oxo-1-azabicyclo[3.2.0]hept-2-ene-2-carboxylic acid
Formula: C17H25N3O5S
Exact mass: 383.1514919
SMILES: CC1C2C(C(=O)N2C(=C1SC3CC(NC3)C(=O)N(C)C)C(=O)O)C(C)O
InChI: InChI=1S/C17H25N3O5S/c1-7-12-11(8(2)21)16(23)20(12)13(17(24)25)14(7)26-9-5-10(18-6-9)15(22)19(3)4/h7-12,18,21H,5-6H2,1-4H3,(H,24,25)
Instrument: Exploris 240 Thermo Scientific
Instrument type: LC-ESI-QFT
Ms type: MS2
Ion mode: NEGATIVE
Ionization: ESI
Fragmentation mode: HCD
Collision energy: 15 % (nominal)
Resolution: 15000
Column name: XBridge C18 3.5um, 2.1x50mm, Waters
Retention time: 2.467 min
Base peak: 382.1443
Precursor m/z: 382.1442
Precursor type: [M-H]-
m/z	relative intensity	assigned
127.0224	103	C6H7OS-
153.0387	11	C8H9OS-
154.0332	60	C7H8NOS-
170.0405	66	C8H10O2S-
171.0482	48	C8H11O2S-
173.0755	109	C7H13N2OS-
197.0517	151	C9H11NO2S-
198.0595	344	C9H12NO2S-
251.1225	57	C13H19N2OS-
252.1179	31	C12H18N3OS-
267.1175	999	C13H19N2O2S-
277.1559	19	C15H21N2O3-
293.1331	357	C15H21N2O2S-
311.1436	900	C15H23N2O3S-
