Mass spectrum: Alachlor; LC-ESI-QFT; MS2; CE: 15%; R=15000; [M+H]+
Name: Alachlor
Name: 2-chloro-N-(2,6-diethylphenyl)-N-(methoxymethyl)acetamide
Formula: C14H20ClNO2
Exact mass: 269.1182566
SMILES: CCC1=CC=CC(CC)=C1N(COC)C(=O)CCl
InChI: InChI=1S/C14H20ClNO2/c1-4-11-7-6-8-12(5-2)14(11)16(10-18-3)13(17)9-15/h6-8H,4-5,9-10H2,1-3H3
Instrument: Q Exactive Plus
Instrument type: LC-ESI-QFT
Ms type: MS2
Ion mode: POSITIVE
Ionization: ESI
Fragmentation mode: HCD
Collision energy: 15 % (nominal)
Resolution: 15000
Column name: XBridge C18 3.5um, 2.1x50mm, Waters
Retention time: 10.464 min
Base peak: 238.0993
Precursor m/z: 270.1255
Precursor type: [M+H]+
Precursor intensity: 97784955.41
m/z	relative intensity	assigned
162.1276	138	C11H16N+
220.0892	17	C13H15ClN+
238.0992	999	C13H17ClNO+
