Mass spectrum: Ethyl 2-cyano-3,3-diphenylacrylate; LC-ESI-QFT; MS2; CE: 75%; R=15000; [M+H]+
Name: Ethyl 2-cyano-3,3-diphenylacrylate
Name: ethyl 2-cyano-3,3-diphenylprop-2-enoate
Formula: C18H15NO2
Exact mass: 277.1102787
SMILES: CCOC(=O)C(C#N)=C(C1=CC=CC=C1)C1=CC=CC=C1
InChI: InChI=1S/C18H15NO2/c1-2-21-18(20)16(13-19)17(14-9-5-3-6-10-14)15-11-7-4-8-12-15/h3-12H,2H2,1H3
Instrument: Exploris 240 Thermo Scientific
Instrument type: LC-ESI-QFT
Ms type: MS2
Ion mode: POSITIVE
Ionization: ESI
Fragmentation mode: HCD
Collision energy: 75 % (nominal)
Resolution: 15000
Column name: XBridge C18 3.5um, 2.1x50mm, Waters
Retention time: 9.995 min
Base peak: 278.1172
Precursor m/z: 278.1176
Precursor type: [M+H]+
m/z	relative intensity	assigned
53.0387	38	C4H5+
68.9971	20	C3HO2+
77.0387	27	C6H5+
95.049	137	C6H7O+
104.0494	123	C7H6N+
105.0334	788	C7H5O+
129.0334	62	C9H5O+
157.0282	14	C10H5O2+
176.0619	335	C14H8+
177.0698	605	C14H9+
178.0785	139	C14H10+
195.0803	58	C14H11O+
202.0781	250	C16H10+
203.0725	752	C15H9N+
204.0807	999	C15H10N+
206.0968	17	C15H12N+
232.0757	247	C16H10NO+
