Mass spectrum: Fluralaner; LC-ESI-QFT; MS2; CE: 45%; R=17500; [M-H]-
Name: Fluralaner
Name: 4-[5-(3,5-dichlorophenyl)-5-(trifluoromethyl)-4H-1,2-oxazol-3-yl]-2-methyl-N-[2-oxo-2-(2,2,2-trifluoroethylamino)ethyl]benzamide
Formula: C22H17Cl2F6N3O3
Exact mass: 555.055116084
SMILES: CC1=C(C=CC(=C1)C2=NOC(C2)(C3=CC(=CC(=C3)Cl)Cl)C(F)(F)F)C(=O)NCC(=O)NCC(F)(F)F
InChI: InChI=1S/C22H17Cl2F6N3O3/c1-11-4-12(2-3-16(11)19(35)31-9-18(34)32-10-21(25,26)27)17-8-20(36-33-17,22(28,29)30)13-5-14(23)7-15(24)6-13/h2-7H,8-10H2,1H3,(H,31,35)(H,32,34)
Instrument: Exploris 240 Orbitrap Thermo Scientific
Instrument type: LC-ESI-QFT
Ms type: MS2
Ion mode: NEGATIVE
Ionization: ESI
Fragmentation mode: HCD
Collision energy: 45 % (nominal)
Resolution: 17500
Column name: XBridge C18 3.5um, 2.1x50mm, Waters
Retention time: 13.362 min
Base peak: 311.1686
Precursor m/z: 554.0478
Precursor type: [M-H]-
m/z	relative intensity	assigned
65.9984	277	C3NO-
68.9957	309	CF3-
86.0049	206	C3HFNO-
94.0174	30	C4H2N2O-
95.025	360	C4H3N2O-
103.9952	17	C3F2NO-
113.0156	518	C4H2FN2O-
115.0311	159	C4H4FN2O-
130.0663	44	C9H8N-
156.033	24	CH5F5N2O-
161.0166	114	C5H3F2N2O2-
169.0412	49	C10H5N2O-
169.0773	53	C11H9N2-
183.0564	82	C11H7N2O-
184.9571	25	C3ClF2N2O3-
185.0352	150	C2H6F5N2O2-
185.0716	37	C6H9F4N2-
186.9722	96	Cl2F5H6O-
199.0508	94	C8H11ClF3-
209.072	112	C13H9N2O-
211.0514	224	C12H7N2O2-
211.9675	607	C9H4Cl2NO-
215.0468	47	C11H7N2O3-
219.9908	152	C9H4ClF3O-
226.0619	135	C4H9F5N3O2-
227.0468	37	C6H12ClF4O2-
238.0623	63	C10H10F4O2-
245.9688	73	C8ClF3N3O-
252.0777	110	C6H11F5N3O2-
254.057	999	C7H15Cl2F3N2-
274.0631	189	C5H10F6N3O3-
327.0098	42	C17H7ClFNO3-
340.9899	45	C12H5ClF5NO3-
372.0167	36	C15H7ClF4N3O2-
