Mass spectrum: 6-O-Desmethyl-mycophenolic acid; LC-ESI-QFT; MS2; CE: 45%; R=17500; [M-H]-
Name: 6-O-Desmethyl-mycophenolic acid
Name: 6-(4,6-dihydroxy-7-methyl-3-oxo-1H-2-benzofuran-5-yl)-4-methylhex-4-enoic acid
Formula: C16H18O6
Exact mass: 306.1103383
SMILES: CC1=C2COC(=O)C2=C(C(=C1O)CC=C(C)CCC(=O)O)O
InChI: InChI=1S/C16H18O6/c1-8(4-6-12(17)18)3-5-10-14(19)9(2)11-7-22-16(21)13(11)15(10)20/h3,19-20H,4-7H2,1-2H3,(H,17,18)
Instrument: Exploris 240 Orbitrap Thermo Scientific
Instrument type: LC-ESI-QFT
Ms type: MS2
Ion mode: NEGATIVE
Ionization: ESI
Fragmentation mode: HCD
Collision energy: 45 % (nominal)
Resolution: 17500
Column name: XBridge C18 3.5um, 2.1x50mm, Waters
Retention time: 6.307 min
Base peak: 305.1029
Precursor m/z: 305.1031
Precursor type: [M-H]-
m/z	relative intensity	assigned
59.0138	4	C2H3O2-
95.0502	7	C6H7O-
121.0658	66	C8H9O-
135.0448	5	C8H7O2-
147.0449	3	C9H7O2-
148.0529	69	C9H8O2-
149.0607	23	C9H9O2-
161.0606	9	C10H9O2-
162.0689	20	C10H10O2-
173.1334	18	C13H17-
178.0267	21	C9H6O4-
179.0349	58	C9H7O4-
189.0925	6	C12H13O2-
189.128	36	C13H17O-
191.035	89	C10H7O4-
192.0427	244	C10H8O4-
193.0504	25	C10H9O4-
199.1121	8	C14H15O-
203.0344	5	C11H7O4-
205.05	27	C11H9O4-
217.1231	92	C14H17O2-
243.1024	13	C15H15O3-
261.1131	999	C15H17O4-
305.1024	73	C16H17O6-
