Mass spectrum: Clomazone; LC-ESI-QFT; MS2; CE: 15%; R=15000; [M+H]+
Name: Clomazone
Name: 2-[(2-chlorophenyl)methyl]-4,4-dimethyl-1,2-oxazolidin-3-one
Formula: C12H14ClNO2
Exact mass: 239.0713064
SMILES: CC1(C)CON(CC2=C(Cl)C=CC=C2)C1=O
InChI: InChI=1S/C12H14ClNO2/c1-12(2)8-16-14(11(12)15)7-9-5-3-4-6-10(9)13/h3-6H,7-8H2,1-2H3
Instrument: Q Exactive Plus
Instrument type: LC-ESI-QFT
Ms type: MS2
Ion mode: POSITIVE
Ionization: ESI
Fragmentation mode: HCD
Collision energy: 15 % (nominal)
Resolution: 15000
Column name: XBridge C18 3.5um, 2.1x50mm, Waters
Retention time: 8.307 min
Base peak: 240.0788
Precursor m/z: 240.0786
Precursor type: [M+H]+
Precursor intensity: 831342266.19
m/z	relative intensity	assigned
125.0154	758	C7H6Cl+
128.0707	45	C6H10NO2+
240.0787	999	C12H15ClNO2+
