Mass spectrum: Phenyl glucuronide; LC-ESI-QFT; MS2; CE: 15%; R=17500; [M-H]-
Name: Phenyl glucuronide
Name: 3,4,5-trihydroxy-6-phenoxyoxane-2-carboxylic acid
Name: Phenolic glucuronide
Formula: C12H14O7
Exact mass: 270.0739528
SMILES: C1=CC=C(C=C1)OC2C(C(C(C(O2)C(=O)O)O)O)O
InChI: InChI=1S/C12H14O7/c13-7-8(14)10(11(16)17)19-12(9(7)15)18-6-4-2-1-3-5-6/h1-5,7-10,12-15H,(H,16,17)
Instrument: Exploris 240 Orbitrap Thermo Scientific
Instrument type: LC-ESI-QFT
Ms type: MS2
Ion mode: NEGATIVE
Ionization: ESI
Fragmentation mode: HCD
Collision energy: 15 % (nominal)
Resolution: 17500
Column name: XBridge C18 3.5um, 2.1x50mm, Waters
Retention time: 2.934 min
Base peak: 269.0667
Precursor m/z: 269.0667
Precursor type: [M-H]-
m/z	relative intensity	assigned
59.0139	41	C2H3O2-
71.0139	5	C3H3O2-
75.0087	34	C2H3O3-
85.0296	51	C4H5O2-
87.0086	5	C3H3O3-
93.0348	25	C6H5O-
95.0138	16	C5H3O2-
99.0086	35	C4H3O3-
103.0038	51	C3H3O4-
113.0245	573	C5H5O3-
115.0035	10	C4H3O4-
117.0195	27	C4H5O4-
129.0192	20	C5H5O4-
157.0144	27	C6H5O5-
175.0249	283	C6H7O6-
251.0564	24	C12H11O6-
269.0669	999	C12H13O7-
