Mass spectrum: 4,4`-Oxydianiline; LC-ESI-QFT; MS2; CE: 60%; R=15000; [M+H]+
Name: 4,4`-Oxydianiline
Name: 4-(4-aminophenoxy)aniline
Formula: C12H12N2O
Exact mass: 200.094963
SMILES: NC1=CC=C(OC2=CC=C(N)C=C2)C=C1
InChI: InChI=1S/C12H12N2O/c13-9-1-5-11(6-2-9)15-12-7-3-10(14)4-8-12/h1-8H,13-14H2
Instrument: Exploris 240 Thermo Scientific
Instrument type: LC-ESI-QFT
Ms type: MS2
Ion mode: POSITIVE
Ionization: ESI
Fragmentation mode: HCD
Collision energy: 60 % (nominal)
Resolution: 15000
Column name: XBridge C18 3.5um, 2.1x50mm, Waters
Retention time: 1.535 min
Base peak: 201.1018
Precursor m/z: 201.1022
Precursor type: [M+H]+
m/z	relative intensity	assigned
80.0494	115	C5H6N+
93.0572	59	C6H7N+
94.0651	18	C6H8N+
108.0442	999	C6H6NO+
109.0523	11	C6H7NO+
129.07	20	C10H9+
156.0808	83	C11H10N+
184.0754	75	C12H10NO+
201.1021	292	C12H13N2O+
