Mass spectrum: Boscalid; LC-ESI-QFT; MS2; CE: 120%; R=15000; [M+H]+
Name: Boscalid
Name: 2-chloro-N-[2-(4-chlorophenyl)phenyl]pyridine-3-carboxamide
Formula: C18H12Cl2N2O
Exact mass: 342.0326684
SMILES: ClC1=CC=C(C=C1)C1=C(NC(=O)C2=C(Cl)N=CC=C2)C=CC=C1
InChI: InChI=1S/C18H12Cl2N2O/c19-13-9-7-12(8-10-13)14-4-1-2-6-16(14)22-18(23)15-5-3-11-21-17(15)20/h1-11H,(H,22,23)
Instrument: Q Exactive Plus
Instrument type: LC-ESI-QFT
Ms type: MS2
Ion mode: POSITIVE
Ionization: ESI
Fragmentation mode: HCD
Collision energy: 120 % (nominal)
Resolution: 15000
Column name: XBridge C18 3.5um, 2.1x50mm, Waters
Retention time: 9.173 min
Base peak: 343.0403
Precursor m/z: 343.0399
Precursor type: [M+H]+
Precursor intensity: 188620855.64
m/z	relative intensity	assigned
50.0151	236	C4H2+
51.0229	485	C4H3+
52.0182	43	C3H2N+
53.0022	13	C3HO+
61.9792	73	CHClN+
65.0022	18	C4HO+
66.0338	28	C4H4N+
75.0103	60	C5HN+
75.0229	23	C6H3+
76.0181	999	C5H2N+
78.0338	753	C5H4N+
84.984	113	C4H2Cl+
89.0387	22	C7H5+
96.0444	505	C5H6NO+
102.0466	22	C8H6+
111.9949	259	C5H3ClN+
112.0393	44	C2H9ClN2O+
113.0027	24	C5H4ClN+
113.0384	47	C9H5+
114.0337	23	C8H4N+
115.0542	28	C9H7+
126.0465	23	C10H6+
130.0055	125	C5H5ClNO+
139.0542	37	C11H7+
140.0494	92	C10H6N+
150.0466	73	C12H6+
151.0542	14	C12H7+
152.062	200	C12H8+
163.0539	42	C13H7+
164.0498	13	C12H6N+
164.0621	19	C13H8+
165.0696	40	C13H9+
166.0523	16	C11H6N2+
166.0654	35	C12H8N+
167.0604	10	C11H7N2+
167.0732	18	C12H9N+
168.0687	17	C11H8N2+
169.0648	107	C12H9O+
174.0464	14	C14H6+
176.0622	66	C14H8+
177.0573	170	C13H7N+
179.0605	24	C12H7N2+
187.0546	31	C15H7+
189.0701	231	C15H9+
190.0647	139	C14H8N+
191.0735	25	C14H9N+
194.0604	25	C10H11ClN2+
198.0469	22	C16H6+
200.0623	161	C16H8+
203.0737	50	C15H9N+
204.081	29	C15H10N+
214.0651	261	C16H8N+
215.0736	179	C16H9N+
217.0658	29	C13H12ClN+
225.0572	154	C17H7N+
226.066	67	C17H8N+
227.0736	158	C17H9N+
240.0685	63	C17H8N2+
241.0759	302	C17H9N2+
242.0837	684	C17H10N2+
243.0916	141	C17H11N2+
244.0758	75	C17H10NO+
245.0719	24	C16H9N2O+
252.0678	70	C18H8N2+
253.0759	101	C18H9N2+
269.0701	32	C18H9N2O+
270.0787	81	C18H10N2O+
271.0862	57	C18H11N2O+
