Mass spectrum: Gatifloxacin; LC-ESI-QFT; MS2; CE: 15%; R=15000; [M+H]+
Name: Gatifloxacin
Name: 1-cyclopropyl-6-fluoro-8-methoxy-7-(3-methylpiperazin-1-yl)-4-oxoquinoline-3-carboxylic acid
Formula: C19H22FN3O4
Exact mass: 375.1594344
SMILES: CC1CN(CCN1)C2=C(C=C3C(=C2OC)N(C=C(C3=O)C(=O)O)C4CC4)F
InChI: InChI=1S/C19H22FN3O4/c1-10-8-22(6-5-21-10)16-14(20)7-12-15(18(16)27-2)23(11-3-4-11)9-13(17(12)24)19(25)26/h7,9-11,21H,3-6,8H2,1-2H3,(H,25,26)
Instrument: Exploris 240 Thermo Scientific
Instrument type: LC-ESI-QFT
Ms type: MS2
Ion mode: POSITIVE
Ionization: ESI
Fragmentation mode: HCD
Collision energy: 15 % (nominal)
Resolution: 15000
Column name: XBridge C18 3.5um, 2.1x50mm, Waters
Retention time: 3.969 min
Base peak: 376.1668
Precursor m/z: 376.1667
Precursor type: [M+H]+
m/z	relative intensity	assigned
332.1771	15	C18H23FN3O2+
376.1668	999	C19H23FN3O4+
