Mass spectrum: Triclopyr; LC-ESI-QFT; MS2; CE: 90%; R=15000; [M+H]+
Name: Triclopyr
Name: 2-(3,5,6-trichloropyridin-2-yl)oxyacetic acid
Formula: C7H4Cl3NO3
Exact mass: 254.925676
SMILES: OC(=O)COC1=C(Cl)C=C(Cl)C(Cl)=N1
InChI: InChI=1S/C7H4Cl3NO3/c8-3-1-4(9)7(11-6(3)10)14-2-5(12)13/h1H,2H2,(H,12,13)
Instrument: Q Exactive Plus
Instrument type: LC-ESI-QFT
Ms type: MS2
Ion mode: POSITIVE
Ionization: ESI
Fragmentation mode: HCD
Collision energy: 90 % (nominal)
Resolution: 15000
Column name: XBridge C18 3.5um, 2.1x50mm, Waters
Retention time: 9.064 min
Base peak: 164.9845
Precursor m/z: 255.933
Precursor type: [M+H]+
Precursor intensity: 4419539.74
m/z	relative intensity	assigned
61.9792	169	CHClN+
62.9632	253	CClO+
72.9839	54	C3H2Cl+
75.0103	29	C5HN+
83.9761	24	C4HCl+
84.9839	110	C4H2Cl+
97.9792	68	C4HClN+
106.945	665	C3HCl2+
108.9714	96	C5ClN+
109.9792	999	C5HClN+
118.945	370	C4HCl2+
127.9897	177	C5H3ClNO+
133.9558	131	C4H2Cl2N+
145.9559	366	C5H2Cl2N+
146.0002	39	C5H5ClNO2+
146.9637	23	C5H3Cl2N+
161.9507	397	C5H2Cl2NO+
163.9663	565	C5H4Cl2NO+
179.9168	407	C5HCl3N+
179.9609	87	C5H4Cl2NO2+
181.9327	14	C5H3Cl3N+
197.9274	335	C5H3Cl3NO+
