Mass spectrum: Sacubitrilat; LC-ESI-QFT; MS2; CE: 45%; R=17500; [M+H]+
Name: Sacubitrilat
Name: (2R,4S)-4-(3-carboxypropanoylamino)-2-methyl-5-(4-phenylphenyl)pentanoic Acid
Name: 4-(3-carboxypropanoylamino)-2-methyl-5-(4-phenylphenyl)pentanoic acid
Name: LBQ657
Formula: C22H25NO5
Exact mass: 383.1732729
SMILES: CC(CC(CC1=CC=C(C=C1)C2=CC=CC=C2)NC(=O)CCC(=O)O)C(=O)O
InChI: InChI=1S/C22H25NO5/c1-15(22(27)28)13-19(23-20(24)11-12-21(25)26)14-16-7-9-18(10-8-16)17-5-3-2-4-6-17/h2-10,15,19H,11-14H2,1H3,(H,23,24)(H,25,26)(H,27,28)
Instrument: Exploris 240 Orbitrap Thermo Scientific
Instrument type: LC-ESI-QFT
Ms type: MS2
Ion mode: POSITIVE
Ionization: ESI
Fragmentation mode: HCD
Collision energy: 45 % (nominal)
Resolution: 17500
Column name: XBridge C18 3.5um, 2.1x50mm, Waters
Retention time: 9.223 min
Base peak: 384.1802
Precursor m/z: 384.1805
Precursor type: [M+H]+
m/z	relative intensity	assigned
55.0178	12	C3H3O+
69.0335	24	C4H5O+
69.0698	62	C5H9+
72.0444	9	C3H6NO+
73.0281	21	C3H5O2+
98.0601	71	C5H8NO+
100.0392	88	C4H6NO2+
101.0233	77	C4H5O3+
112.0754	18	C6H10NO+
165.0699	147	C13H9+
167.0854	205	C13H11+
178.0776	32	C14H10+
179.0855	93	C14H11+
191.086	4	C15H11+
193.1012	999	C15H13+
196.1127	7	C14H14N+
205.1013	19	C16H13+
210.1275	5	C15H16N+
221.1325	177	C17H17+
231.1171	19	C18H15+
249.1266	27	C18H17O+
266.154	973	C18H20NO+
278.1541	22	C19H20NO+
320.1637	11	C21H22NO2+
