Mass spectrum: Hymexazol; LC-ESI-QFT; MS2; CE: 120%; R=15000; [M+H]+
Name: Hymexazol
Name: 5-methyl-1,2-oxazol-3-one
Formula: C4H5NO2
Exact mass: 99.0320284
SMILES: CC1=CC(=O)NO1
InChI: InChI=1S/C4H5NO2/c1-3-2-4(6)5-7-3/h2H,1H3,(H,5,6)
Instrument: Exploris 240 Thermo Scientific
Instrument type: LC-ESI-QFT
Ms type: MS2
Ion mode: POSITIVE
Ionization: ESI
Fragmentation mode: HCD
Collision energy: 120 % (nominal)
Resolution: 15000
Column name: XBridge C18 3.5um, 2.1x50mm, Waters
Retention time: 2.158 min
Base peak: 100.0392
Precursor m/z: 100.0393
Precursor type: [M+H]+
m/z	relative intensity	assigned
43.0178	652	C2H3O+
44.0131	575	CH2NO+
44.0495	350	C2H6N+
45.0335	291	C2H5O+
54.0338	999	C3H4N+
55.0178	107	C3H3O+
100.0393	355	C4H6NO2+
