Mass spectrum: 3-Desmethyltrimethoprim; LC-ESI-QFT; MS2; CE: 180%; R=17500; [M+H]+
Name: 3-Desmethyltrimethoprim
Name: 5-[(2,4-diaminopyrimidin-5-yl)methyl]-2,3-dimethoxyphenol
Formula: C13H16N4O3
Exact mass: 276.1222404
SMILES: COC1=CC(=CC(=C1OC)O)CC2=CN=C(N=C2N)N
InChI: InChI=1S/C13H16N4O3/c1-19-10-5-7(4-9(18)11(10)20-2)3-8-6-16-13(15)17-12(8)14/h4-6,18H,3H2,1-2H3,(H4,14,15,16,17)
Instrument: Exploris 240 Orbitrap Thermo Scientific
Instrument type: LC-ESI-QFT
Ms type: MS2
Ion mode: POSITIVE
Ionization: ESI
Fragmentation mode: HCD
Collision energy: 180 % (nominal)
Resolution: 17500
Column name: XBridge C18 3.5um, 2.1x50mm, Waters
Retention time: 2.604 min
Base peak: 277.1292
Precursor m/z: 277.1295
Precursor type: [M+H]+
m/z	relative intensity	assigned
51.0229	409	C4H3+
52.0181	378	C3H2N+
53.0023	83	C3HO+
53.0386	165	C4H5+
54.0338	999	C3H4N+
55.0417	123	C3H5N+
65.0386	545	C5H5+
67.0545	100	C5H7+
68.037	168	C3H4N2+
69.0449	55	C3H5N2+
77.0386	738	C6H5+
78.034	172	C5H4N+
79.0292	168	C4H3N2+
79.042	77	C5H5N+
80.0495	158	C5H6N+
81.0448	613	C4H5N2+
83.0478	56	C3H5N3+
89.0386	307	C7H5+
90.034	122	C6H4N+
91.0544	168	C7H7+
92.0498	163	C6H6N+
93.0572	73	C6H7N+
94.0528	147	C5H6N2+
94.0651	68	C6H8N+
95.0493	300	C6H7O+
96.0552	46	C4H6N3+
102.0342	101	C7H4N+
104.0493	242	C7H6N+
105.0446	411	C6H5N2+
106.0525	97	C6H6N2+
109.0511	57	C4H5N4+
114.0337	52	C8H4N+
116.0499	118	C8H6N+
117.057	45	C8H7N+
119.0606	56	C7H7N2+
120.0558	193	C6H6N3+
128.0494	54	C9H6N+
147.0668	202	C7H7N4+
