Mass spectrum: 2-Acetylaminofluorene; LC-ESI-QFT; MS2; CE: 150%; R=15000; [M+H]+
Name: 2-Acetylaminofluorene
Name: N-(9H-fluoren-2-yl)acetamide
Formula: C15H13NO
Exact mass: 223.099714
SMILES: CC(=O)NC1=CC=C2C(CC3=C2C=CC=C3)=C1
InChI: InChI=1S/C15H13NO/c1-10(17)16-13-6-7-15-12(9-13)8-11-4-2-3-5-14(11)15/h2-7,9H,8H2,1H3,(H,16,17)
Instrument: Q Exactive Plus
Instrument type: LC-ESI-QFT
Ms type: MS2
Ion mode: POSITIVE
Ionization: ESI
Fragmentation mode: HCD
Collision energy: 150 % (nominal)
Resolution: 15000
Column name: XBridge C18 3.5um, 2.1x50mm, Waters
Retention time: 8.918 min
Base peak: 224.107
Precursor m/z: 224.107
Precursor type: [M+H]+
Precursor intensity: 497879017.52
m/z	relative intensity	assigned
51.0229	13	C4H3+
53.0386	26	C4H5+
54.0338	25	C3H4N+
62.0151	14	C5H2+
63.0229	102	C5H3+
65.0385	60	C5H5+
87.023	24	C7H3+
89.0386	142	C7H5+
91.0542	62	C7H7+
95.0491	41	C6H7O+
102.0464	14	C8H6+
113.0384	40	C9H5+
114.0464	12	C9H6+
115.0542	999	C9H7+
126.0464	32	C10H6+
127.054	38	C10H7+
128.0621	99	C10H8+
138.0463	16	C11H6+
139.0542	877	C11H7+
140.0496	50	C10H6N+
140.062	106	C11H8+
141.0694	36	C11H9+
145.0649	58	C10H9O+
152.062	587	C12H8+
153.0698	349	C12H9+
154.0649	17	C11H8N+
163.0541	778	C13H7+
164.0619	441	C13H8+
165.0698	965	C13H9+
166.065	128	C12H8N+
167.0729	75	C12H9N+
168.0568	202	C12H8O+
169.0647	69	C12H9O+
178.0648	21	C13H8N+
180.0806	802	C13H10N+
