Mass spectrum: Sulfurol; LC-ESI-QFT; MS2; CE: 180%; R=17500; [M+H]+
Name: Sulfurol
Name: 4-Methyl-5-thiazoleethanol
Name: 2-(4-methyl-1,3-thiazol-5-yl)ethanol
Formula: C6H9NOS
Exact mass: 143.0404849
SMILES: CC1=C(SC=N1)CCO
InChI: InChI=1S/C6H9NOS/c1-5-6(2-3-8)9-4-7-5/h4,8H,2-3H2,1H3
Instrument: Exploris 240 Orbitrap Thermo Scientific
Instrument type: LC-ESI-QFT
Ms type: MS2
Ion mode: POSITIVE
Ionization: ESI
Fragmentation mode: HCD
Collision energy: 180 % (nominal)
Resolution: 17500
Column name: XBridge C18 3.5um, 2.1x50mm, Waters
Retention time: 1.742 min
Base peak: 144.0476
Precursor m/z: 144.0478
Precursor type: [M+H]+
m/z	relative intensity	assigned
42.0338	196	C2H4N+
44.9794	250	CHS+
46.9951	20	CH3S+
52.0307	26	C4H4+
53.0386	224	C4H5+
54.0338	122	C3H4N+
55.0416	101	C3H5N+
55.0543	61	C4H7+
58.995	127	C2H3S+
65.0386	101	C5H5+
68.0494	81	C4H6N+
68.9795	22	C3HS+
69.0574	36	C4H7N+
70.995	999	C3H3S+
72.0028	102	C3H4S+
78.034	30	C5H4N+
80.0494	257	C5H6N+
84.003	22	C4H4S+
85.0107	370	C4H5S+
86.0187	40	C4H6S+
94.9954	9	C5H3S+
98.006	34	C4H4NS+
112.0216	923	C5H6NS+
113.0295	217	C5H7NS+
