Mass spectrum: 2-Benzyl-2-(dimethylamino)-1-[4-(morpholin-4-yl)phenyl]butan-1-one; LC-ESI-QFT; MS2; CE: 75%; R=15000; [M+H]+
Name: 2-Benzyl-2-(dimethylamino)-1-[4-(morpholin-4-yl)phenyl]butan-1-one
Name: 2-Benzyl-2-dimethylamino-1-(4-morpholinophenyl)-1-butanone
Name: 2-benzyl-2-(dimethylamino)-1-(4-morpholin-4-ylphenyl)butan-1-one
Formula: C23H30N2O2
Exact mass: 366.2307282
SMILES: CCC(CC1=CC=CC=C1)(N(C)C)C(=O)C1=CC=C(C=C1)N1CCOCC1
InChI: InChI=1S/C23H30N2O2/c1-4-23(24(2)3,18-19-8-6-5-7-9-19)22(26)20-10-12-21(13-11-20)25-14-16-27-17-15-25/h5-13H,4,14-18H2,1-3H3
Instrument: Exploris 240 Thermo Scientific
Instrument type: LC-ESI-QFT
Ms type: MS2
Ion mode: POSITIVE
Ionization: ESI
Fragmentation mode: HCD
Collision energy: 75 % (nominal)
Resolution: 15000
Column name: XBridge C18 3.5um, 2.1x50mm, Waters
Retention time: 5.169 min
Base peak: 367.2376
Precursor m/z: 367.238
Precursor type: [M+H]+
m/z	relative intensity	assigned
70.065	42	C4H8N+
79.0542	24	C6H7+
86.0962	14	C5H12N+
91.0542	192	C7H7+
104.0495	12	C7H6N+
105.0698	37	C8H9+
117.0572	14	C8H7N+
117.0696	15	C9H9+
118.0652	34	C8H8N+
119.073	16	C8H9N+
129.0696	13	C10H9+
131.0854	80	C10H11+
132.081	44	C9H10N+
133.0889	17	C9H11N+
145.0885	89	C10H11N+
146.0962	72	C10H12N+
147.1041	210	C10H13N+
162.0915	63	C10H12NO+
176.1071	198	C11H14NO+
176.1432	358	C12H18N+
190.0862	999	C11H12NO2+
190.1223	57	C12H16NO+
202.0776	157	C16H10+
203.1305	61	C13H17NO+
207.1043	121	C15H13N+
252.1382	35	C17H18NO+
265.1465	91	C18H19NO+
