Mass spectrum: Tapentadol O-sulfate; LC-ESI-QFT; MS2; CE: 150%; R=17500; [M-H]-
Name: Tapentadol O-sulfate
Name: [3-[1-(dimethylamino)-2-methylpentan-3-yl]phenyl] hydrogen sulfate
Formula: C14H23NO4S
Exact mass: 301.1347792
SMILES: CCC(C1=CC(=CC=C1)OS(=O)(=O)O)C(C)CN(C)C
InChI: InChI=1S/C14H23NO4S/c1-5-14(11(2)10-15(3)4)12-7-6-8-13(9-12)19-20(16,17)18/h6-9,11,14H,5,10H2,1-4H3,(H,16,17,18)
Instrument: Exploris 240 Orbitrap Thermo Scientific
Instrument type: LC-ESI-QFT
Ms type: MS2
Ion mode: NEGATIVE
Ionization: ESI
Fragmentation mode: HCD
Collision energy: 150 % (nominal)
Resolution: 17500
Column name: XBridge C18 3.5um, 2.1x50mm, Waters
Retention time: 4.230 min
Base peak: 300.1274
Precursor m/z: 300.1275
Precursor type: [M-H]-
m/z	relative intensity	assigned
65.0397	32	C5H5-
79.9573	219	O3S-
91.0553	73	C7H7-
92.0268	13	C6H4O-
93.0345	40	C6H5O-
105.0707	3	C8H9-
106.0422	6	C7H6O-
117.0346	12	C8H5O-
119.0502	999	C8H7O-
131.0502	13	C9H7O-
132.0584	7	C9H8O-
133.0659	122	C9H9O-
