Mass spectrum: Fludioxonil; LC-ESI-QFT; MS2; CE: 90%; R=15000; [M-H]-
Name: Fludioxonil
Name: 4-(2,2-difluoro-1,3-benzodioxol-4-yl)-1H-pyrrole-3-carbonitrile
Formula: C12H6F2N2O2
Exact mass: 248.0397339
SMILES: FC1(F)OC2=CC=CC(=C2O1)C1=CNC=C1C#N
InChI: InChI=1S/C12H6F2N2O2/c13-12(14)17-10-3-1-2-8(11(10)18-12)9-6-16-5-7(9)4-15/h1-3,5-6,16H
Instrument: Q Exactive Plus
Instrument type: LC-ESI-QFT
Ms type: MS2
Ion mode: NEGATIVE
Ionization: ESI
Fragmentation mode: HCD
Collision energy: 90 % (nominal)
Resolution: 15000
Column name: XBridge C18 3.5um, 2.1x50mm, Waters
Retention time: 9.492 min
Base peak: 247.0323
Precursor m/z: 247.0325
Precursor type: [M-H]-
Precursor intensity: 372221920.2
m/z	relative intensity	assigned
50.0034	342	C3N-
64.0066	38	C3N2-
65.0145	135	C3HN2-
65.9984	24	C3NO-
70.9938	149	C3FO-
89.0145	180	C5HN2-
89.0397	126	C7H5-
94.994	32	C5FO-
115.0301	50	C7H3N2-
124.0194	92	C9H2N-
126.0349	999	C9H4N-
127.0301	85	C8H3N2-
141.0459	210	C9H5N2-
151.0301	351	C10H3N2-
152.0379	660	C10H4N2-
153.0456	63	C10H5N2-
169.0407	537	C10H5N2O-
180.0329	970	C11H4N2O-
247.0326	33	C12H5F2N2O2-
