Mass spectrum: Tapentadol O-sulfate; LC-ESI-QFT; MS2; CE: 15%; R=17500; [M+H]+
Name: Tapentadol O-sulfate
Name: [3-[1-(dimethylamino)-2-methylpentan-3-yl]phenyl] hydrogen sulfate
Formula: C14H23NO4S
Exact mass: 301.1347792
SMILES: CCC(C1=CC(=CC=C1)OS(=O)(=O)O)C(C)CN(C)C
InChI: InChI=1S/C14H23NO4S/c1-5-14(11(2)10-15(3)4)12-7-6-8-13(9-12)19-20(16,17)18/h6-9,11,14H,5,10H2,1-4H3,(H,16,17,18)
Instrument: Exploris 240 Orbitrap Thermo Scientific
Instrument type: LC-ESI-QFT
Ms type: MS2
Ion mode: POSITIVE
Ionization: ESI
Fragmentation mode: HCD
Collision energy: 15 % (nominal)
Resolution: 17500
Column name: XBridge C18 3.5um, 2.1x50mm, Waters
Retention time: 4.219 min
Base peak: 302.1418
Precursor m/z: 302.1421
Precursor type: [M+H]+
m/z	relative intensity	assigned
222.1852	44	C14H24NO+
302.1419	999	C14H24NO4S+
