Mass spectrum: Profenofos; LC-ESI-QFT; MS2; CE: 45%; R=15000; [M+H]+
Name: Profenofos
Name: 4-bromo-2-chloro-1-[ethoxy(propylsulfanyl)phosphoryl]oxybenzene
Formula: C11H15BrClO3PS
Exact mass: 371.9351418
SMILES: CCCSP(=O)(OCC)OC1=C(C=C(C=C1)Br)Cl
InChI: InChI=1S/C11H15BrClO3PS/c1-3-7-18-17(14,15-4-2)16-11-6-5-9(12)8-10(11)13/h5-6,8H,3-4,7H2,1-2H3
Instrument: Exploris 240 Thermo Scientific
Instrument type: LC-ESI-QFT
Ms type: MS2
Ion mode: POSITIVE
Ionization: ESI
Fragmentation mode: HCD
Collision energy: 45 % (nominal)
Resolution: 15000
Column name: XBridge C18 3.5um, 2.1x50mm, Waters
Retention time: 13.098 min
Base peak: 374.9398
Precursor m/z: 372.9424
Precursor type: [M+H]+
m/z	relative intensity	assigned
96.9507	144	H2O2PS+
114.9611	141	H4O3PS+
128.0021	85	C5H5O2P+
143.9793	176	C5H5OPS+
186.9386	45	C6H4BrO2+
187.9687	86	C6H5O3PS+
205.935	21	C6H4ClO2PS+
220.882	120	C5H3BrOPS+
222.8975	189	C5H5BrOPS+
222.9372	32	C6H5ClO3PS+
223.9457	35	C6H6ClO3PS+
266.8873	31	C6H5BrO3PS+
268.8761	49	C6H4BrClO3P+
284.8535	67	C6H4BrClO2PS+
302.8638	999	C6H6BrClO3PS+
