Mass spectrum: Desacetylbisacodyl; LC-ESI-QFT; MS2; CE: 30%; R=17500; [M+H]+
Name: Desacetylbisacodyl
Name: Deacetylbisacodyl
Name: 4-[(4-hydroxyphenyl)-pyridin-2-ylmethyl]phenol
Formula: C18H15NO2
Exact mass: 277.1102787
SMILES: C1=CC=NC(=C1)C(C2=CC=C(C=C2)O)C3=CC=C(C=C3)O
InChI: InChI=1S/C18H15NO2/c20-15-8-4-13(5-9-15)18(17-3-1-2-12-19-17)14-6-10-16(21)11-7-14/h1-12,18,20-21H
Instrument: Exploris 240 Orbitrap Thermo Scientific
Instrument type: LC-ESI-QFT
Ms type: MS2
Ion mode: POSITIVE
Ionization: ESI
Fragmentation mode: HCD
Collision energy: 30 % (nominal)
Resolution: 17500
Column name: XBridge C18 3.5um, 2.1x50mm, Waters
Retention time: 3.446 min
Base peak: 278.117
Precursor m/z: 278.1176
Precursor type: [M+H]+
m/z	relative intensity	assigned
183.0687	2	C12H9NO+
184.0756	999	C12H10NO+
278.1175	261	C18H16NO2+
