Mass spectrum: Phenylephrine 3-O-sulfate; LC-ESI-QFT; MS2; CE: 90%; R=17500; [M+H]+
Name: Phenylephrine 3-O-sulfate
Name: [3-[1-hydroxy-2-(methylamino)ethyl]phenyl] hydrogen sulfate
Formula: C9H13NO5S
Exact mass: 247.0514435
SMILES: CNCC(C1=CC(=CC=C1)OS(=O)(=O)O)O
InChI: InChI=1S/C9H13NO5S/c1-10-6-9(11)7-3-2-4-8(5-7)15-16(12,13)14/h2-5,9-11H,6H2,1H3,(H,12,13,14)
Instrument: Exploris 240 Orbitrap Thermo Scientific
Instrument type: LC-ESI-QFT
Ms type: MS2
Ion mode: POSITIVE
Ionization: ESI
Fragmentation mode: HCD
Collision energy: 90 % (nominal)
Resolution: 17500
Column name: XBridge C18 3.5um, 2.1x50mm, Waters
Retention time: 1.038 min
Base peak: 144.9877
Precursor m/z: 248.0587
Precursor type: [M+H]+
m/z	relative intensity	assigned
56.0494	53	C3H6N+
57.0573	104	C3H7N+
65.0388	17	C5H5+
79.0543	55	C6H7+
81.0699	139	C6H9+
91.0542	999	C7H7+
93.0701	51	C7H9+
94.0412	55	C6H6O+
95.0494	18	C6H7O+
103.0542	46	C8H7+
105.0452	25	H11NO3S+
106.0654	36	C7H8N+
107.0492	242	C7H7O+
107.0734	30	C7H9N+
108.057	69	C7H8O+
109.0648	514	C7H9O+
117.0574	77	C8H7N+
118.0418	32	C8H6O+
118.0649	79	C8H8N+
119.0495	107	C8H7O+
120.0446	56	C7H6NO+
120.0811	17	C8H10N+
121.0646	87	C8H9O+
122.0961	15	C8H12N+
132.0812	27	C9H10N+
134.0602	174	C8H8NO+
135.0678	662	C8H9NO+
150.0913	381	C9H12NO+
