Mass spectrum: Pyridate; LC-ESI-QFT; MS2; CE: 45%; R=15000; [M+H]+
Name: Pyridate
Name: (6-chloro-3-phenylpyridazin-4-yl) octylsulfanylformate
Formula: C19H23ClN2O2S
Exact mass: 378.1168767
SMILES: CCCCCCCCSC(=O)OC1=CC(Cl)=NN=C1C1=CC=CC=C1
InChI: InChI=1S/C19H23ClN2O2S/c1-2-3-4-5-6-10-13-25-19(23)24-16-14-17(20)21-22-18(16)15-11-8-7-9-12-15/h7-9,11-12,14H,2-6,10,13H2,1H3
Instrument: Q Exactive Plus
Instrument type: LC-ESI-QFT
Ms type: MS2
Ion mode: POSITIVE
Ionization: ESI
Fragmentation mode: HCD
Collision energy: 45 % (nominal)
Resolution: 15000
Column name: XBridge C18 3.5um, 2.1x50mm, Waters
Retention time: 16.445 min
Base peak: 379.1244
Precursor m/z: 379.1242
Precursor type: [M+H]+
Precursor intensity: 282888817.6
m/z	relative intensity	assigned
57.0699	121	C4H9+
68.0131	14	C3H2NO+
69.0699	36	C5H9+
71.0856	85	C5H11+
104.0495	64	C7H6N+
207.032	999	C10H8ClN2O+
