Mass spectrum: Trimebutine; LC-ESI-QFT; MS2; CE: 75%; R=17500; [M+H]+
Name: Trimebutine
Name: [2-(dimethylamino)-2-phenylbutyl] 3,4,5-trimethoxybenzoate
Formula: C22H29NO5
Exact mass: 387.204573028
SMILES: CCC(COC(=O)C1=CC(=C(C(=C1)OC)OC)OC)(C2=CC=CC=C2)N(C)C
InChI: InChI=1S/C22H29NO5/c1-7-22(23(2)3,17-11-9-8-10-12-17)15-28-21(24)16-13-18(25-4)20(27-6)19(14-16)26-5/h8-14H,7,15H2,1-6H3
Instrument: Exploris 240 Orbitrap Thermo Scientific
Instrument type: LC-ESI-QFT
Ms type: MS2
Ion mode: POSITIVE
Ionization: ESI
Fragmentation mode: HCD
Collision energy: 75 % (nominal)
Resolution: 17500
Column name: XBridge C18 3.5um, 2.1x50mm, Waters
Retention time: 6.755 min
Base peak: 388.2118
Precursor m/z: 388.2118
Precursor type: [M+H]+
m/z	relative intensity	assigned
53.0385	89	C4H5+
65.0385	65	C5H5+
66.0465	27	C5H6+
67.0545	28	C5H7+
77.0387	118	C6H5+
78.0463	21	C6H6+
79.0542	230	C6H7+
81.0335	180	C5H5O+
81.0698	92	C6H9+
91.0542	999	C7H7+
92.0256	15	C6H4O+
93.0335	26	C6H5O+
94.0413	37	C6H6O+
95.0492	84	C6H7O+
96.057	115	C6H8O+
103.0544	34	C8H7+
106.0413	22	C7H6O+
107.0494	25	C7H7O+
108.0574	36	C7H8O+
109.0286	42	C6H5O2+
109.0647	129	C7H9O+
111.0806	31	C7H11O+
115.0542	33	C9H7+
116.062	138	C9H8+
121.0288	26	C7H5O2+
122.0364	129	C7H6O2+
123.0445	39	C7H7O2+
124.0518	226	C7H8O2+
129.0698	131	C10H9+
131.0856	294	C10H11+
134.0367	37	C8H6O2+
137.0229	83	C7H5O3+
138.0676	91	C8H10O2+
139.039	101	C7H7O3+
139.0753	259	C8H11O2+
151.0389	62	C8H7O3+
152.0468	519	C8H8O3+
154.0624	378	C8H10O3+
167.0702	142	C9H11O3+
183.0296	32	C8H7O5+
195.0653	478	C10H11O4+
198.0526	51	C9H10O5+
