Mass spectrum: Benoxacor; LC-ESI-QFT; MS2; CE: 90%; R=15000; [M+H]+
Name: Benoxacor
Name: 2,2-dichloro-1-(3-methyl-2,3-dihydro-1,4-benzoxazin-4-yl)ethanone
Formula: C11H11Cl2NO2
Exact mass: 259.016684
SMILES: CC1COC2=CC=CC=C2N1C(=O)C(Cl)Cl
InChI: InChI=1S/C11H11Cl2NO2/c1-7-6-16-9-5-3-2-4-8(9)14(7)11(15)10(12)13/h2-5,7,10H,6H2,1H3
Instrument: Exploris 240 Thermo Scientific
Instrument type: LC-ESI-QFT
Ms type: MS2
Ion mode: POSITIVE
Ionization: ESI
Fragmentation mode: HCD
Collision energy: 90 % (nominal)
Resolution: 15000
Column name: XBridge C18 3.5um, 2.1x50mm, Waters
Retention time: 8.025 min
Base peak: 260.0237
Precursor m/z: 260.024
Precursor type: [M+H]+
m/z	relative intensity	assigned
79.0544	30	C6H7+
80.0495	114	C5H6N+
82.945	300	CHCl2+
93.0336	35	C6H5O+
93.0573	57	C6H7N+
105.0699	36	C8H9+
106.065	173	C7H8N+
108.0444	120	C6H6NO+
117.0574	83	C8H7N+
120.0444	932	C7H6NO+
132.0443	94	C8H6NO+
132.0807	73	C9H10N+
134.0601	999	C8H8NO+
148.076	24	C9H10NO+
149.0834	105	C9H11NO+
160.0757	79	C10H10NO+
166.0055	73	C8H5ClNO+
