Mass spectrum: Tropicamide; LC-ESI-QFT; MS2; CE: 150%; R=15000; [M+H]+
Name: Tropicamide
Name: N-ethyl-3-hydroxy-2-phenyl-N-(pyridin-4-ylmethyl)propanamide
Formula: C17H20N2O2
Exact mass: 284.1524779
SMILES: CCN(CC1=CC=NC=C1)C(=O)C(CO)C2=CC=CC=C2
InChI: InChI=1S/C17H20N2O2/c1-2-19(12-14-8-10-18-11-9-14)17(21)16(13-20)15-6-4-3-5-7-15/h3-11,16,20H,2,12-13H2,1H3
Instrument: Exploris 240 Thermo Scientific
Instrument type: LC-ESI-QFT
Ms type: MS2
Ion mode: POSITIVE
Ionization: ESI
Fragmentation mode: HCD
Collision energy: 150 % (nominal)
Resolution: 15000
Column name: XBridge C18 3.5um, 2.1x50mm, Waters
Retention time: 3.452 min
Base peak: 285.1595
Precursor m/z: 285.1598
Precursor type: [M+H]+
m/z	relative intensity	assigned
51.0229	83	C4H3+
53.0386	121	C4H5+
65.0386	142	C5H5+
66.0464	101	C5H6+
67.0417	166	C4H5N+
77.0387	340	C6H5+
78.0341	21	C5H4N+
79.0418	133	C5H5N+
80.0495	999	C5H6N+
90.0465	18	C7H6+
91.0543	180	C7H7+
92.0496	255	C6H6N+
93.0574	723	C6H7N+
95.0492	225	C6H7O+
96.0445	21	C5H6NO+
103.0543	200	C8H7+
105.0446	101	C6H5N2+
107.0604	207	C6H7N2+
119.0604	56	C7H7N2+
