Mass spectrum: PFMBA; LC-ESI-QFT; MS2; CE: 30%; R=17500; [M-H]-
Name: PFMBA
Name: 2,2,3,3,4,4-hexafluoro-4-(trifluoromethoxy)butanoic acid
Formula: C5HF9O3
Exact mass: 279.978197872
SMILES: C(=O)(C(C(C(OC(F)(F)F)(F)F)(F)F)(F)F)O
InChI: InChI=1S/C5HF9O3/c6-2(7,1(15)16)3(8,9)4(10,11)17-5(12,13)14/h(H,15,16)
Instrument: Exploris 240 Orbitrap Thermo Scientific
Instrument type: LC-ESI-QFT
Ms type: MS2
Ion mode: NEGATIVE
Ionization: ESI
Fragmentation mode: HCD
Collision energy: 30 % (nominal)
Resolution: 17500
Column name: XBridge C18 3.5um, 2.1x50mm, Waters
Retention time: 5.865 min
Base peak: 278.9708
Precursor m/z: 278.9709
Precursor type: [M-H]-
m/z	relative intensity	assigned
84.9907	999	CF3O-
