Mass spectrum: Abacavir 5`-carboxylate; LC-ESI-QFT; MS2; CE: 180%; R=17500; [M+H]+
Name: Abacavir 5`-carboxylate
Name: 4-[2-amino-6-(cyclopropylamino)purin-9-yl]cyclopent-2-ene-1-carboxylic acid
Formula: C14H16N6O2
Exact mass: 300.1334738
SMILES: C1CC1NC2=C3C(=NC(=N2)N)N(C=N3)C4CC(C=C4)C(=O)O
InChI: InChI=1S/C14H16N6O2/c15-14-18-11(17-8-2-3-8)10-12(19-14)20(6-16-10)9-4-1-7(5-9)13(21)22/h1,4,6-9H,2-3,5H2,(H,21,22)(H3,15,17,18,19)
Instrument: Exploris 240 Orbitrap Thermo Scientific
Instrument type: LC-ESI-QFT
Ms type: MS2
Ion mode: POSITIVE
Ionization: ESI
Fragmentation mode: HCD
Collision energy: 180 % (nominal)
Resolution: 17500
Column name: XBridge C18 3.5um, 2.1x50mm, Waters
Retention time: 3.369 min
Base peak: 301.1404
Precursor m/z: 301.1408
Precursor type: [M+H]+
m/z	relative intensity	assigned
51.0229	84	C4H3+
53.0135	126	C2HN2+
53.0388	47	C4H5+
54.0213	179	C2H2N2+
55.0291	739	C2H3N2+
55.0543	91	C4H7+
65.0134	405	C3HN2+
65.0385	999	C5H5+
66.0213	152	C3H2N2+
67.0292	206	C3H3N2+
67.054	226	C5H7+
68.0243	284	C2H2N3+
68.0493	49	C4H6N+
78.0339	89	C5H4N+
80.0243	276	C3H2N3+
81.032	132	C3H3N3+
82.0399	95	C3H4N3+
92.0243	271	C4H2N3+
107.0351	143	C4H3N4+
108.0431	155	C4H4N4+
109.051	120	C4H5N4+
