Mass spectrum: Dichlorvos; LC-ESI-QFT; MS2; CE: 75%; R=15000; [M+H]+
Name: Dichlorvos
Name: 2,2-dichloroethenyl dimethyl phosphate
Formula: C4H7Cl2O4P
Exact mass: 219.9459007
SMILES: COP(=O)(OC)OC=C(Cl)Cl
InChI: InChI=1S/C4H7Cl2O4P/c1-8-11(7,9-2)10-3-4(5)6/h3H,1-2H3
Instrument: Q Exactive Plus
Instrument type: LC-ESI-QFT
Ms type: MS2
Ion mode: POSITIVE
Ionization: ESI
Fragmentation mode: HCD
Collision energy: 75 % (nominal)
Resolution: 15000
Column name: XBridge C18 3.5um, 2.1x50mm, Waters
Retention time: 6.096 min
Base peak: 220.9533
Precursor m/z: 220.9532
Precursor type: [M+H]+
Precursor intensity: 774016924.06
m/z	relative intensity	assigned
59.9762	17	C2HCl+
78.9943	429	CH4O2P+
96.9605	49	CH3ClOP+
97.0049	23	CH6O3P+
112.9998	89	CH6O4P+
127.0155	999	C2H8O4P+
