Mass spectrum: Benzamide; LC-ESI-QFT; MS2; CE: 30%; R=15000; [M+H]+
Name: Benzamide
Formula: C7H7NO
Exact mass: 121.0527638
SMILES: C1=CC=C(C=C1)C(=O)N
InChI: InChI=1S/C7H7NO/c8-7(9)6-4-2-1-3-5-6/h1-5H,(H2,8,9)
Instrument: Exploris 240 Thermo Scientific
Instrument type: LC-ESI-QFT
Ms type: MS2
Ion mode: POSITIVE
Ionization: ESI
Fragmentation mode: HCD
Collision energy: 30 % (nominal)
Resolution: 15000
Column name: XBridge C18 3.5um, 2.1x50mm, Waters
Retention time: 2.801 min
Base peak: 122.0598
Precursor m/z: 122.06
Precursor type: [M+H]+
m/z	relative intensity	assigned
44.013	366	CH2NO+
59.0491	11	C3H7O+
77.0385	20	C6H5+
79.0541	682	C6H7+
95.049	58	C6H7O+
105.0334	999	C7H5O+
122.0599	464	C7H8NO+
