Mass spectrum: Prosulfuron; LC-ESI-QFT; MS2; CE: 90%; R=15000; [M+H]+
Name: Prosulfuron
Name: 1-(4-methoxy-6-methyl-1,3,5-triazin-2-yl)-3-[2-(3,3,3-trifluoropropyl)phenyl]sulfonylurea
Formula: C15H16F3N5O4S
Exact mass: 419.0875097
SMILES: COC1=NC(C)=NC(NC(=O)NS(=O)(=O)C2=C(CCC(F)(F)F)C=CC=C2)=N1
InChI: InChI=1S/C15H16F3N5O4S/c1-9-19-12(22-14(20-9)27-2)21-13(24)23-28(25,26)11-6-4-3-5-10(11)7-8-15(16,17)18/h3-6H,7-8H2,1-2H3,(H2,19,20,21,22,23,24)
Instrument: Q Exactive Plus
Instrument type: LC-ESI-QFT
Ms type: MS2
Ion mode: POSITIVE
Ionization: ESI
Fragmentation mode: HCD
Collision energy: 90 % (nominal)
Resolution: 15000
Column name: XBridge C18 3.5um, 2.1x50mm, Waters
Retention time: 9.077 min
Base peak: 420.0952
Precursor m/z: 420.0948
Precursor type: [M+H]+
Precursor intensity: 358441509.99
m/z	relative intensity	assigned
56.0495	505	C3H6N+
57.0447	261	C2H5N2+
58.0288	324	C2H4NO+
59.0291	10	C3H4F+
67.029	10	C3H3N2+
68.0243	46	C2H2N3+
69.0084	266	C2HN2O+
78.0464	16	C6H6+
83.024	153	C3H3N2O+
83.0292	200	C5H4F+
85.0396	39	C3H5N2O+
89.0385	24	C7H5+
100.0505	35	C3H6N3O+
109.0449	999	C7H6F+
133.045	36	C9H6F+
141.0771	45	C5H9N4O+
167.0565	22	C6H7N4O2+
173.0068	13	C7H6FO2S+
