Mass spectrum: Dorzolamide; LC-ESI-QFT; MS2; CE: 40%; R=15000; [M+H]+
Name: Dorzolamide
Name: (4S,6S)-4-(ethylamino)-6-methyl-7,7-bis(oxidanylidene)-5,6-dihydro-4H-thieno[2,3-b]thiopyran-2-sulfonamide
Name: 4-(ethylamino)-6-methyl-7,7-dioxo-5,6-dihydro-4H-thieno[2,3-b]thiopyran-2-sulfonamide
Formula: C10H16N2O4S3
Exact mass: 324.02722
SMILES: CCNC1CC(S(=O)(=O)C2=C1C=C(S2)S(=O)(=O)N)C
InChI: InChI=1S/C10H16N2O4S3/c1-3-12-8-4-6(2)18(13,14)10-7(8)5-9(17-10)19(11,15)16/h5-6,8,12H,3-4H2,1-2H3,(H2,11,15,16)
Instrument: Exploris 240 Thermo Scientific
Instrument type: LC-ESI-QFT
Ms type: MS2
Ion mode: POSITIVE
Ionization: ESI
Fragmentation mode: HCD
Collision energy: 40 % (nominal)
Resolution: 15000
Column name: XBridge C18 3.5um, 2.1x50mm, Waters
Retention time: 1.509 min
Base peak: 325.0341
Precursor m/z: 325.0345
Precursor type: [M+H]+
m/z	relative intensity	assigned
79.0543	32	C6H7+
84.0027	12	C4H4S+
91.0542	659	C7H7+
94.9952	14	C5H3S+
102.0464	28	C8H6+
121.0108	14	C7H5S+
123.0263	170	C7H7S+
127.9748	26	C5H4S2+
134.0185	257	C8H6S+
135.0262	999	C8H7S+
136.034	178	C8H8S+
138.9666	15	C6H3S2+
151.0212	334	C8H7OS+
154.962	44	C6H3OS2+
154.986	28	C6H5NS2+
155.9697	106	C6H4OS2+
202.0777	232	C8H14N2O2S+
215.0074	11	C8H9NO2S2+
218.9477	163	C6H5NO2S3+
