Mass spectrum: Acitretin; LC-ESI-QFT; MS2; CE: 30%; R=15000; [M+H]+
Name: Acitretin
Name: 9-(4-Methoxy-2,3,6-trimethylphenyl)-3,7-dimethyl-2,4,6,8-nonatetraenoic acid
Name: 9-(4-methoxy-2,3,6-trimethylphenyl)-3,7-dimethylnona-2,4,6,8-tetraenoic acid
Formula: C21H26O3
Exact mass: 326.1881947
SMILES: CC1=CC(=C(C(=C1C=CC(=CC=CC(=CC(=O)O)C)C)C)C)OC
InChI: InChI=1S/C21H26O3/c1-14(8-7-9-15(2)12-21(22)23)10-11-19-16(3)13-20(24-6)18(5)17(19)4/h7-13H,1-6H3,(H,22,23)
Instrument: Exploris 240 Thermo Scientific
Instrument type: LC-ESI-QFT
Ms type: MS2
Ion mode: POSITIVE
Ionization: ESI
Fragmentation mode: HCD
Collision energy: 30 % (nominal)
Resolution: 15000
Column name: XBridge C18 3.5um, 2.1x50mm, Waters
Retention time: 15.918 min
Base peak: 327.1949
Precursor m/z: 327.1955
Precursor type: [M+H]+
m/z	relative intensity	assigned
105.0696	42	C8H9+
121.0646	40	C8H9O+
131.0853	336	C10H11+
133.101	227	C10H13+
135.0803	152	C9H11O+
149.0959	172	C10H13O+
151.1114	216	C10H15O+
159.0801	635	C11H11O+
163.1115	106	C11H15O+
177.0907	999	C11H13O2+
201.1269	121	C14H17O+
227.1426	57	C16H19O+
240.15	28	C17H20O+
241.1583	34	C17H21O+
267.1735	319	C19H23O+
281.1894	154	C20H25O+
309.1845	334	C21H25O2+
327.1953	277	C21H27O3+
