Mass spectrum: Alverine; LC-ESI-QFT; MS2; CE: 90%; R=17500; [M+H]+
Name: Alverine
Name: N-ethyl-3-phenyl-N-(3-phenylpropyl)propan-1-amine
Formula: C20H27N
Exact mass: 281.214349864
SMILES: CCN(CCCC1=CC=CC=C1)CCCC2=CC=CC=C2
InChI: InChI=1S/C20H27N/c1-2-21(17-9-15-19-11-5-3-6-12-19)18-10-16-20-13-7-4-8-14-20/h3-8,11-14H,2,9-10,15-18H2,1H3
Instrument: Exploris 240 Orbitrap Thermo Scientific
Instrument type: LC-ESI-QFT
Ms type: MS2
Ion mode: POSITIVE
Ionization: ESI
Fragmentation mode: HCD
Collision energy: 90 % (nominal)
Resolution: 17500
Column name: XBridge C18 3.5um, 2.1x50mm, Waters
Retention time: 7.913 min
Base peak: 282.2213
Precursor m/z: 282.2216
Precursor type: [M+H]+
m/z	relative intensity	assigned
58.0651	10	C3H8N+
65.0385	19	C5H5+
79.0542	4	C6H7+
91.0542	999	C7H7+
117.0699	4	C9H9+
