Mass spectrum: Valeryl-4-hydroxyvalsartan; LC-ESI-QFT; MS2; CE: 60%; R=17500; [M-H]-
Name: Valeryl-4-hydroxyvalsartan
Name: 2-[4-hydroxypentanoyl-[[4-[2-(2H-tetrazol-5-yl)phenyl]phenyl]methyl]amino]-3-methylbutanoic acid
Formula: C24H29N5O4
Exact mass: 451.2219544
SMILES: CC(C)C(C(=O)O)N(CC1=CC=C(C=C1)C2=CC=CC=C2C3=NNN=N3)C(=O)CCC(C)O
InChI: InChI=1S/C24H29N5O4/c1-15(2)22(24(32)33)29(21(31)13-8-16(3)30)14-17-9-11-18(12-10-17)19-6-4-5-7-20(19)23-25-27-28-26-23/h4-7,9-12,15-16,22,30H,8,13-14H2,1-3H3,(H,32,33)(H,25,26,27,28)
Instrument: Exploris 240 Orbitrap Thermo Scientific
Instrument type: LC-ESI-QFT
Ms type: MS2
Ion mode: NEGATIVE
Ionization: ESI
Fragmentation mode: HCD
Collision energy: 60 % (nominal)
Resolution: 17500
Column name: XBridge C18 3.5um, 2.1x50mm, Waters
Retention time: 6.678 min
Base peak: 450.2145
Precursor m/z: 450.2147
Precursor type: [M-H]-
m/z	relative intensity	assigned
57.0347	20	C3H5O-
71.0503	89	C4H7O-
72.0455	45	C3H6NO-
81.0346	40	C5H5O-
99.0453	59	C5H7O2-
101.0608	73	C5H9O2-
116.0716	603	C5H10NO2-
117.0559	47	C5H9O3-
128.1081	311	C7H14NO-
154.0875	69	C8H12NO2-
154.1242	55	C9H16NO-
164.0631	34	C13H8-
165.0703	75	C13H9-
170.1184	106	C9H16NO2-
178.079	908	C14H10-
179.0865	999	C14H11-
192.0813	191	C14H10N-
194.0975	25	C14H12N-
206.0843	74	C14H10N2-
207.093	64	C14H11N2-
222.1044	36	C14H12N3-
248.1448	48	C18H18N-
