Mass spectrum: Tolterodine; LC-ESI-QFT; MS2; CE: 120%; R=15000; [M+H]+
Name: Tolterodine
Name: 2-[(1R)-3-[di(propan-2-yl)amino]-1-phenylpropyl]-4-methylphenol
Formula: C22H31NO
Exact mass: 325.2405646
SMILES: CC(C)N(CC[C@H](C1=CC=CC=C1)C1=C(O)C=CC(C)=C1)C(C)C
InChI: InChI=1S/C22H31NO/c1-16(2)23(17(3)4)14-13-20(19-9-7-6-8-10-19)21-15-18(5)11-12-22(21)24/h6-12,15-17,20,24H,13-14H2,1-5H3/t20-/m1/s1
Instrument: Exploris 240 Thermo Scientific
Instrument type: LC-ESI-QFT
Ms type: MS2
Ion mode: POSITIVE
Ionization: ESI
Fragmentation mode: HCD
Collision energy: 120 % (nominal)
Resolution: 15000
Column name: XBridge C18 3.5um, 2.1x50mm, Waters
Retention time: 6.330 min
Base peak: 326.2476
Precursor m/z: 326.2478
Precursor type: [M+H]+
m/z	relative intensity	assigned
53.0386	52	C4H5+
55.0179	31	C3H3O+
65.0385	127	C5H5+
77.0385	61	C6H5+
78.0463	15	C6H6+
79.0541	26	C6H7+
91.0542	999	C7H7+
95.0491	170	C6H7O+
104.0619	39	C8H8+
105.07	20	C8H9+
107.049	34	C7H7O+
115.0542	256	C9H7+
117.0698	103	C9H9+
119.0858	62	C9H11+
121.0649	83	C8H9O+
128.0621	54	C10H8+
129.07	34	C10H9+
132.0568	53	C9H8O+
141.0696	70	C11H9+
152.0622	83	C12H8+
153.0699	138	C12H9+
154.0777	107	C12H10+
165.0699	54	C13H9+
178.0777	103	C14H10+
179.0858	25	C14H11+
181.0648	245	C13H9O+
182.0725	73	C13H10O+
195.0807	26	C14H11O+
202.0779	285	C16H10+
