Mass spectrum: Ethephon; LC-ESI-QFT; MS2; CE: 45%; R=15000; [M+H]+
Name: Ethephon
Name: 2-chloroethylphosphonic acid
Formula: C2H6ClO3P
Exact mass: 143.9743084
SMILES: C(CCl)P(=O)(O)O
InChI: InChI=1S/C2H6ClO3P/c3-1-2-7(4,5)6/h1-2H2,(H2,4,5,6)
Instrument: Exploris 240 Thermo Scientific
Instrument type: LC-ESI-QFT
Ms type: MS2
Ion mode: POSITIVE
Ionization: ESI
Fragmentation mode: HCD
Collision energy: 45 % (nominal)
Resolution: 15000
Column name: XBridge C18 3.5um, 2.1x50mm, Waters
Retention time: 1.051 min
Base peak: 132.9582
Precursor m/z: 144.9816
Precursor type: [M+H]+
m/z	relative intensity	assigned
45.0335	11	C2H5O+
98.9842	219	CH4ClO3+
109.0049	711	C2H6O3P+
126.971	245	C2H5ClO2P+
144.9815	999	C2H7ClO3P+
