Mass spectrum: Diosmin; LC-ESI-QFT; MS2; CE: 90%; R=15000; [M-H]-
Name: Diosmin
Name: Diosmetin-7-O-rutinoside
Name: 2-(4-methoxy-3-oxidanyl-phenyl)-7-[(2S,3R,4S,5S,6R)-6-[[(2R,3R,4R,5R,6S)-6-methyl-3,4,5-tris(oxidanyl)oxan-2-yl]oxymethyl]-3,4,5-tris(oxidanyl)oxan-2-yl]oxy-5-oxidanyl-chromen-4-one
Formula: C28H32O15
Exact mass: 608.1741203
SMILES: CC1C(C(C(C(O1)OCC2C(C(C(C(O2)OC3=CC(=C4C(=C3)OC(=CC4=O)C5=CC(=C(C=C5)OC)O)O)O)O)O)O)O)O
InChI: InChI=1S/C28H32O15/c1-10-21(32)23(34)25(36)27(40-10)39-9-19-22(33)24(35)26(37)28(43-19)41-12-6-14(30)20-15(31)8-17(42-18(20)7-12)11-3-4-16(38-2)13(29)5-11/h3-8,10,19,21-30,32-37H,9H2,1-2H3
Instrument: Q Exactive
Instrument type: LC-ESI-QFT
Ms type: MS2
Ion mode: NEGATIVE
Ionization: ESI
Fragmentation mode: HCD
Collision energy: 90 % (nominal)
Resolution: 15000
Column name: XBridge C18 3.5um, 2.1x50mm, Waters
Retention time: 5.105 min
Base peak: 607.167
Precursor m/z: 607.1668
Precursor type: [M-H]-
Precursor intensity: 119824329.38
m/z	relative intensity	assigned
63.0239	999	C5H3-
65.0032	560	C4HO-
83.0138	542	C4H3O2-
107.0139	692	C6H3O2-
123.0087	49	C6H3O3-
133.0295	395	C8H5O2-
148.0167	76	C8H4O3-
149.9959	49	C7H2O4-
151.0035	381	C7H3O4-
155.0502	55	C11H7O-
167.0503	31	C12H7O-
174.0323	27	C10H6O3-
183.0451	244	C12H7O2-
185.0248	47	C11H5O3-
200.0477	58	C12H8O3-
210.0325	20	C13H6O3-
211.04	254	C13H7O3-
227.0348	515	C13H7O4-
239.0349	80	C14H7O4-
255.0299	327	C14H7O5-
256.0378	168	C14H8O5-
284.0326	408	C15H8O6-
