Mass spectrum: Benoxacor; LC-ESI-QFT; MS2; CE: 60%; R=15000; [M+H]+
Name: Benoxacor
Name: 2,2-dichloro-1-(3-methyl-2,3-dihydro-1,4-benzoxazin-4-yl)ethanone
Formula: C11H11Cl2NO2
Exact mass: 259.016684
SMILES: CC1COC2=CC=CC=C2N1C(=O)C(Cl)Cl
InChI: InChI=1S/C11H11Cl2NO2/c1-7-6-16-9-5-3-2-4-8(9)14(7)11(15)10(12)13/h2-5,7,10H,6H2,1H3
Instrument: Exploris 240 Thermo Scientific
Instrument type: LC-ESI-QFT
Ms type: MS2
Ion mode: POSITIVE
Ionization: ESI
Fragmentation mode: HCD
Collision energy: 60 % (nominal)
Resolution: 15000
Column name: XBridge C18 3.5um, 2.1x50mm, Waters
Retention time: 8.025 min
Base peak: 260.0237
Precursor m/z: 260.024
Precursor type: [M+H]+
m/z	relative intensity	assigned
59.0492	39	C3H7O+
82.945	120	CHCl2+
108.0444	67	C6H6NO+
120.0444	570	C7H6NO+
132.0445	25	C8H6NO+
132.0807	57	C9H10N+
134.06	570	C8H8NO+
148.0754	25	C9H10NO+
149.0835	999	C9H11NO+
150.0913	185	C9H12NO+
160.0758	148	C10H10NO+
166.0054	111	C8H5ClNO+
167.0133	25	C8H6ClNO+
188.0701	79	C11H10NO2+
196.0521	36	C10H11ClNO+
213.9821	24	C9H6Cl2NO+
