Mass spectrum: Prothioconazole; LC-ESI-QFT; MS2; CE: 30%; R=15000; [M-H]-
Name: Prothioconazole
Name: 2-[2-(1-chlorocyclopropyl)-3-(2-chlorophenyl)-2-hydroxypropyl]-1H-1,2,4-triazole-3-thione
Formula: C14H15Cl2N3OS
Exact mass: 343.0312885
SMILES: C1CC1(C(CC2=CC=CC=C2Cl)(CN3C(=S)N=CN3)O)Cl
InChI: InChI=1S/C14H15Cl2N3OS/c15-11-4-2-1-3-10(11)7-14(20,13(16)5-6-13)8-19-12(21)17-9-18-19/h1-4,9,20H,5-8H2,(H,17,18,21)
Instrument: Exploris 240 Thermo Scientific
Instrument type: LC-ESI-QFT
Ms type: MS2
Ion mode: NEGATIVE
Ionization: ESI
Fragmentation mode: HCD
Collision energy: 30 % (nominal)
Resolution: 15000
Column name: XBridge C18 3.5um, 2.1x50mm, Waters
Retention time: 11.780 min
Base peak: 342.0242
Precursor m/z: 342.024
Precursor type: [M-H]-
m/z	relative intensity	assigned
57.9756	29	CNS-
68.0254	90	C2H2N3-
98.9899	18	C2HN3S-
99.9975	289	C2H2N3S-
125.0164	121	C7H6Cl-
180.0237	149	C7H6N3OS-
183.0041	48	C9H8ClS-
216.0003	117	C7H7ClN3OS-
264.0369	126	C12H11ClN3S-
306.0476	295	C14H13ClN3OS-
342.0243	999	C14H14Cl2N3OS-
