Mass spectrum: Penoxsulam; LC-ESI-QFT; MS2; CE: 45%; R=15000; [M+H]+
Name: Penoxsulam
Name: 2-(2,2-difluoroethoxy)-N-(5,8-dimethoxy-[1,2,4]triazolo[1,5-c]pyrimidin-2-yl)-6-(trifluoromethyl)benzenesulfonamide
Formula: C16H14F5N5O5S
Exact mass: 483.0635806
SMILES: COC1=CN=C(N2C1=NC(=N2)NS(=O)(=O)C3=C(C=CC=C3OCC(F)F)C(F)(F)F)OC
InChI: InChI=1S/C16H14F5N5O5S/c1-29-10-6-22-15(30-2)26-13(10)23-14(24-26)25-32(27,28)12-8(16(19,20)21)4-3-5-9(12)31-7-11(17)18/h3-6,11H,7H2,1-2H3,(H,24,25)
Instrument: Exploris 240 Thermo Scientific
Instrument type: LC-ESI-QFT
Ms type: MS2
Ion mode: POSITIVE
Ionization: ESI
Fragmentation mode: HCD
Collision energy: 45 % (nominal)
Resolution: 15000
Column name: XBridge C18 3.5um, 2.1x50mm, Waters
Retention time: 6.431 min
Base peak: 484.0711
Precursor m/z: 484.0709
Precursor type: [M+H]+
m/z	relative intensity	assigned
124.0268	65	C5H4N2O2+
124.0507	23	C2H8F4O+
136.0619	35	C2H8F4N2+
139.0501	118	C6H7N2O2+
165.0645	43	C6H7N5O+
177.0641	19	CH14F3NO3S+
180.0515	38	C6H6N5O2+
194.0672	197	C7H8N5O2+
195.0751	999	CH15N4O5S+
258.0292	12	C7H8N5O4S+
326.0891	63	C10H15F3N5O2S+
