Mass spectrum: Fluometuron; LC-ESI-QFT; MS2; CE: 180%; R=15000; [M+H]+
Name: Fluometuron
Name: 1,1-dimethyl-3-[3-(trifluoromethyl)phenyl]urea
Formula: C10H11F3N2O
Exact mass: 232.0823476
SMILES: CN(C)C(=O)NC1=CC=CC(=C1)C(F)(F)F
InChI: InChI=1S/C10H11F3N2O/c1-15(2)9(16)14-8-5-3-4-7(6-8)10(11,12)13/h3-6H,1-2H3,(H,14,16)
Instrument: Q Exactive Plus
Instrument type: LC-ESI-QFT
Ms type: MS2
Ion mode: POSITIVE
Ionization: ESI
Fragmentation mode: HCD
Collision energy: 180 % (nominal)
Resolution: 15000
Column name: XBridge C18 3.5um, 2.1x50mm, Waters
Retention time: 7.101 min
Base peak: 233.0896
Precursor m/z: 233.0896
Precursor type: [M+H]+
Precursor intensity: 1062988004.97
m/z	relative intensity	assigned
56.0131	549	C2H2NO+
57.0134	174	C3H2F+
63.0229	453	C5H3+
68.9947	137	CF3+
72.0444	843	C3H6NO+
74.0151	443	C6H2+
75.004	204	C3HF2+
75.0229	999	C6H3+
83.0291	104	C5H4F+
99.0043	71	C5HF2+
100.0181	79	C7H2N+
113.04	46	C6H6FO+
123.0352	85	C6H4FN2+
