Mass spectrum: Cyphenothrin; LC-ESI-QFT; MS2; CE: 90%; R=15000; [M+H]+
Name: Cyphenothrin
Name: [cyano-(3-phenoxyphenyl)methyl] 2,2-dimethyl-3-(2-methylprop-1-enyl)cyclopropane-1-carboxylate
Formula: C24H25NO3
Exact mass: 375.1834437
SMILES: CC(=CC1C(C1(C)C)C(=O)OC(C#N)C2=CC(=CC=C2)OC3=CC=CC=C3)C
InChI: InChI=1S/C24H25NO3/c1-16(2)13-20-22(24(20,3)4)23(26)28-21(15-25)17-9-8-12-19(14-17)27-18-10-6-5-7-11-18/h5-14,20-22H,1-4H3
Instrument: Exploris 240 Thermo Scientific
Instrument type: LC-ESI-QFT
Ms type: MS2
Ion mode: POSITIVE
Ionization: ESI
Fragmentation mode: HCD
Collision energy: 90 % (nominal)
Resolution: 15000
Column name: XBridge C18 3.5um, 2.1x50mm, Waters
Retention time: 15.687 min
Base peak: 398.172
Precursor m/z: 376.1907
Precursor type: [M+H]+
m/z	relative intensity	assigned
53.0385	77	C4H5+
55.0541	178	C4H7+
57.0699	51	C4H9+
59.0492	34	C3H7O+
65.0385	61	C5H5+
67.0541	276	C5H7+
69.0333	99	C4H5O+
69.0698	86	C5H9+
77.0384	67	C6H5+
79.0541	416	C6H7+
81.0697	999	C6H9+
91.054	162	C7H7+
93.0696	105	C7H9+
95.0489	74	C6H7O+
95.0854	140	C7H11+
105.0698	86	C8H9+
107.0852	95	C8H11+
123.1168	55	C9H15+
152.0617	321	C12H8+
153.0699	98	C12H9+
181.0642	399	C13H9O+
206.0596	48	C14H8NO+
