Mass spectrum: Tropicamide; LC-ESI-QFT; MS2; CE: 75%; R=15000; [M+H]+
Name: Tropicamide
Name: N-ethyl-3-hydroxy-2-phenyl-N-(pyridin-4-ylmethyl)propanamide
Formula: C17H20N2O2
Exact mass: 284.1524779
SMILES: CCN(CC1=CC=NC=C1)C(=O)C(CO)C2=CC=CC=C2
InChI: InChI=1S/C17H20N2O2/c1-2-19(12-14-8-10-18-11-9-14)17(21)16(13-20)15-6-4-3-5-7-15/h3-11,16,20H,2,12-13H2,1H3
Instrument: Exploris 240 Thermo Scientific
Instrument type: LC-ESI-QFT
Ms type: MS2
Ion mode: POSITIVE
Ionization: ESI
Fragmentation mode: HCD
Collision energy: 75 % (nominal)
Resolution: 15000
Column name: XBridge C18 3.5um, 2.1x50mm, Waters
Retention time: 3.452 min
Base peak: 285.1595
Precursor m/z: 285.1598
Precursor type: [M+H]+
m/z	relative intensity	assigned
58.0652	188	C3H8N+
79.0542	77	C6H7+
80.0495	603	C5H6N+
91.0542	216	C7H7+
92.0494	129	C6H6N+
93.0573	999	C6H7N+
103.0543	478	C8H7+
107.0604	757	C6H7N2+
108.0682	203	C6H8N2+
118.065	83	C8H8N+
121.0648	124	C8H9O+
135.0917	390	C8H11N2+
182.0962	62	C13H12N+
