Mass spectrum: Hydroxytorasemide; LC-ESI-QFT; MS2; CE: 45%; R=17500; [M-H]-
Name: Hydroxytorasemide
Name: Torasemide metabolite M1
Name: 1-[4-[3-(hydroxymethyl)anilino]pyridin-3-yl]sulfonyl-3-propan-2-ylurea
Formula: C16H20N4O4S
Exact mass: 364.1205261
SMILES: CC(C)NC(=O)NS(=O)(=O)C1=C(C=CN=C1)NC2=CC=CC(=C2)CO
InChI: InChI=1S/C16H20N4O4S/c1-11(2)18-16(22)20-25(23,24)15-9-17-7-6-14(15)19-13-5-3-4-12(8-13)10-21/h3-9,11,21H,10H2,1-2H3,(H,17,19)(H2,18,20,22)
Instrument: Exploris 240 Orbitrap Thermo Scientific
Instrument type: LC-ESI-QFT
Ms type: MS2
Ion mode: NEGATIVE
Ionization: ESI
Fragmentation mode: HCD
Collision energy: 45 % (nominal)
Resolution: 17500
Column name: XBridge C18 3.5um, 2.1x50mm, Waters
Retention time: 4.137 min
Base peak: 363.113
Precursor m/z: 363.1132
Precursor type: [M-H]-
m/z	relative intensity	assigned
60.9753	5	CHOS-
77.9655	6	NO2S-
92.0379	4	C5H4N2-
93.0459	5	C5H5N2-
108.0328	13	C5H4N2O-
121.0536	4	C7H7NO-
125.0181	2	C5H5N2S-
150.997	7	C6H3N2OS-
156.0001	24	C5H4N2O2S-
168.0568	2	C10H6N3-
181.0647	3	C11H7N3-
182.0721	4	C11H8N3-
184.0883	6	C11H10N3-
193.0651	2	C12H7N3-
194.0725	39	C6H14N2O3S-
197.0736	2	C6H15NO4S-
199.088	3	C12H11N2O-
210.0674	3	C12H8N3O-
211.0751	61	C12H9N3O-
212.029	2	C11H6N3S-
212.0828	32	C12H10N3O-
231.0477	2	C11H9N3OS-
242.0396	3	C14H10O2S-
260.0496	18	C12H10N3O2S-
278.0606	999	C12H12N3O3S-
