Mass spectrum: Oxazepam; LC-ESI-QFT; MS2; CE: 90%; R=15000; [M+H]+
Name: Oxazepam
Name: 7-chloro-3-hydroxy-5-phenyl-1,3-dihydro-1,4-benzodiazepin-2-one
Formula: C15H11ClN2O2
Exact mass: 286.0509053
SMILES: OC1N=C(C2=CC=CC=C2)C2=CC(Cl)=CC=C2NC1=O
InChI: InChI=1S/C15H11ClN2O2/c16-10-6-7-12-11(8-10)13(9-4-2-1-3-5-9)18-15(20)14(19)17-12/h1-8,15,20H,(H,17,19)
Instrument: Q Exactive Plus
Instrument type: LC-ESI-QFT
Ms type: MS2
Ion mode: POSITIVE
Ionization: ESI
Fragmentation mode: HCD
Collision energy: 90 % (nominal)
Resolution: 15000
Column name: XBridge C18 3.5um, 2.1x50mm, Waters
Retention time: 7.837 min
Base peak: 287.0581
Precursor m/z: 287.0582
Precursor type: [M+H]+
Precursor intensity: 396230952
m/z	relative intensity	assigned
50.0151	15	C4H2+
51.0229	39	C4H3+
53.0386	89	C4H5+
75.0228	24	C6H3+
77.0385	67	C6H5+
79.0541	17	C6H7+
86.9996	20	C4H4Cl+
90.0339	50	C6H4N+
91.0415	10	C6H5N+
93.0573	405	C6H7N+
95.0491	306	C6H7O+
98.9995	33	C5H4Cl+
100.018	34	C7H2N+
104.0494	999	C7H6N+
105.0446	85	C6H5N2+
117.0448	21	C7H5N2+
118.029	13	C7H4NO+
118.0524	176	C7H6N2+
126.0104	66	C6H5ClN+
128.0261	60	C6H7ClN+
129.01	74	C6H6ClO+
129.0447	11	C8H5N2+
135.9947	23	C7H3ClN+
138.0104	128	C7H5ClN+
139.0057	121	C6H4ClN2+
151.0058	15	C7H4ClN2+
152.0135	13	C7H5ClN2+
152.0618	44	C12H8+
153.0213	98	C7H6ClN2+
154.0053	38	C7H5ClNO+
163.0056	417	C8H4ClN2+
164.0008	163	C10N2O+
166.0054	16	C8H5ClNO+
177.0569	13	C13H7N+
178.0648	33	C13H8N+
179.0731	32	C13H9N+
181.0163	51	C8H6ClN2O+
194.084	32	C13H10N2+
195.0916	63	C13H11N2+
205.0759	123	C14H9N2+
206.0833	17	C14H10N2+
207.068	10	C14H9NO+
214.0418	32	C13H9ClN+
229.0525	64	C13H10ClN2+
241.0524	260	C14H10ClN2+
257.0475	10	C14H10ClN2O+
