Mass spectrum: Hexa(methoxymethyl)melamine; LC-ESI-QFT; MS2; CE: 180%; R=17500; [M+H]+
Name: Hexa(methoxymethyl)melamine
Name: 2-N,2-N,4-N,4-N,6-N,6-N-hexakis(methoxymethyl)-1,3,5-triazine-2,4,6-triamine
Formula: C15H30N6O6
Exact mass: 390.2226827
SMILES: COCN(COC)C1=NC(=NC(=N1)N(COC)COC)N(COC)COC
InChI: InChI=1S/C15H30N6O6/c1-22-7-19(8-23-2)13-16-14(20(9-24-3)10-25-4)18-15(17-13)21(11-26-5)12-27-6/h7-12H2,1-6H3
Instrument: Exploris 240 Orbitrap Thermo Scientific
Instrument type: LC-ESI-QFT
Ms type: MS2
Ion mode: POSITIVE
Ionization: ESI
Fragmentation mode: HCD
Collision energy: 180 % (nominal)
Resolution: 17500
Column name: XBridge C18 3.5um, 2.1x50mm, Waters
Retention time: 6.393 min
Base peak: 359.2034
Precursor m/z: 391.23
Precursor type: [M+H]+
m/z	relative intensity	assigned
53.0135	104	C2HN2+
55.0291	268	C2H3N2+
68.0244	57	C2H2N3+
69.0447	999	C3H5N2+
80.0243	535	C3H2N3+
