Mass spectrum: Theobromine; LC-ESI-QFT; MS2; CE: 45%; R=17500; [M+H]+
Name: Theobromine
Name: 3,7-dimethylpurine-2,6-dione
Formula: C7H8N4O2
Exact mass: 180.0647255
SMILES: CN1C=NC2=C1C(=O)NC(=O)N2C
InChI: InChI=1S/C7H8N4O2/c1-10-3-8-5-4(10)6(12)9-7(13)11(5)2/h3H,1-2H3,(H,9,12,13)
Instrument: Exploris 240 Orbitrap Thermo Scientific
Instrument type: LC-ESI-QFT
Ms type: MS2
Ion mode: POSITIVE
Ionization: ESI
Fragmentation mode: HCD
Collision energy: 45 % (nominal)
Resolution: 17500
Column name: XBridge C18 3.5um, 2.1x50mm, Waters
Retention time: 2.049 min
Base peak: 256.9599
Precursor m/z: 181.072
Precursor type: [M+H]+
m/z	relative intensity	assigned
96.0558	8	C4H6N3+
108.0557	16	C5H6N3+
110.0713	30	C5H8N3+
135.0666	30	C6H7N4+
137.0823	72	C6H9N4+
138.0662	168	C6H8N3O+
163.0616	91	C7H7N4O+
181.0721	999	C7H9N4O2+
