Mass spectrum: 5-Chloro-2-methyl-3(2H)-isothiazolone; LC-ESI-QFT; MS2; CE: 75%; R=15000; [M+H]+
Name: 5-Chloro-2-methyl-3(2H)-isothiazolone
Name: 5-Chloro-2-methyl-4-isothiazolin-3-one
Name: 5-chloro-2-methyl-1,2-thiazol-3-one
Formula: C4H4ClNOS
Exact mass: 148.9702124
SMILES: CN1SC(Cl)=CC1=O
InChI: InChI=1S/C4H4ClNOS/c1-6-4(7)2-3(5)8-6/h2H,1H3
Instrument: Q Exactive Plus
Instrument type: LC-ESI-QFT
Ms type: MS2
Ion mode: POSITIVE
Ionization: ESI
Fragmentation mode: HCD
Collision energy: 75 % (nominal)
Resolution: 15000
Column name: XBridge C18 3.5um, 2.1x50mm, Waters
Retention time: 3.393 min
Base peak: 149.9776
Precursor m/z: 149.9775
Precursor type: [M+H]+
Precursor intensity: 734386484.33
m/z	relative intensity	assigned
57.9871	12	C2H2S+
58.0287	164	C2H4NO+
58.995	59	C2H3S+
59.9903	41	CH2NS+
62.0058	16	CH4NS+
62.9995	15	C2H4Cl+
63.9948	14	CH3ClN+
66.0105	13	CH5ClN+
67.0178	74	C4H3O+
68.9792	11	C3HS+
69.9746	10	C2NS+
70.995	99	C3H3S+
72.0028	16	C3H4S+
72.984	21	C3H2Cl+
74.0059	35	C2H4NS+
74.9995	19	C3H4Cl+
78.0105	56	C2H5ClN+
78.9403	45	CClS+
83.9665	30	C3OS+
84.9742	23	C3HOS+
86.0059	60	C3H4NS+
86.9632	48	C3ClO+
87.0137	38	C3H5NS+
87.995	12	C3H3ClN+
90.0008	10	C2H4NOS+
92.9561	38	C2H2ClS+
94.9716	45	C2H4ClS+
95.9902	173	C4H2NS+
102.9402	26	C3ClS+
102.9945	65	C4H4ClO+
104.956	89	C3H2ClS+
106.0056	20	C3H5ClNO+
106.9594	31	C2H2ClNS+
106.9716	53	C3H4ClS+
114.0007	11	C4H4NOS+
115.0087	254	C4H5NOS+
116.9977	18	C4H4ClNO+
118.9353	186	C3ClOS+
120.9509	54	C3H2ClOS+
132.9513	26	C4H2ClOS+
134.954	250	C3H2ClNOS+
149.9775	999	C4H5ClNOS+
