Mass spectrum: Flutolanil; LC-ESI-QFT; MS2; CE: 120%; R=15000; [M-H]-
Name: Flutolanil
Name: N-(3-propan-2-yloxyphenyl)-2-(trifluoromethyl)benzamide
Formula: C17H16F3NO2
Exact mass: 323.1133134
SMILES: CC(C)OC1=CC(NC(=O)C2=C(C=CC=C2)C(F)(F)F)=CC=C1
InChI: InChI=1S/C17H16F3NO2/c1-11(2)23-13-7-5-6-12(10-13)21-16(22)14-8-3-4-9-15(14)17(18,19)20/h3-11H,1-2H3,(H,21,22)
Instrument: Q Exactive Plus
Instrument type: LC-ESI-QFT
Ms type: MS2
Ion mode: NEGATIVE
Ionization: ESI
Fragmentation mode: HCD
Collision energy: 120 % (nominal)
Resolution: 15000
Column name: XBridge C18 3.5um, 2.1x50mm, Waters
Retention time: 9.587 min
Base peak: 322.106
Precursor m/z: 322.106
Precursor type: [M-H]-
Precursor intensity: 64950553.49
m/z	relative intensity	assigned
68.9958	999	CF3-
75.0241	40	C6H3-
85.0084	65	C7H-
91.0191	23	C6H3O-
105.0146	57	C7H2F-
134.0249	17	C7H4NO2-
145.0271	43	C7H4F3-
