Mass spectrum: Drotaverine; LC-ESI-QFT; MS2; CE: 75%; R=17500; [M+H]+
Name: Drotaverine
Name: 1-(3,4-Diethoxybenzylidene)-6,7-diethoxy-1,2,3,4-tetrahydroisoquinoline
Name: 1-[(3,4-diethoxyphenyl)methylidene]-6,7-diethoxy-3,4-dihydro-2H-isoquinoline
Formula: C24H31NO4
Exact mass: 397.225308472
SMILES: CCOC1=C(C=C(C=C1)C=C2C3=CC(=C(C=C3CCN2)OCC)OCC)OCC
InChI: InChI=1S/C24H31NO4/c1-5-26-21-10-9-17(14-22(21)27-6-2)13-20-19-16-24(29-8-4)23(28-7-3)15-18(19)11-12-25-20/h9-10,13-16,25H,5-8,11-12H2,1-4H3
Instrument: Exploris 240 Orbitrap Thermo Scientific
Instrument type: LC-ESI-QFT
Ms type: MS2
Ion mode: POSITIVE
Ionization: ESI
Fragmentation mode: HCD
Collision energy: 75 % (nominal)
Resolution: 17500
Column name: XBridge C18 3.5um, 2.1x50mm, Waters
Retention time: 7.550 min
Base peak: 398.2321
Precursor m/z: 398.2326
Precursor type: [M+H]+
m/z	relative intensity	assigned
107.0492	24	C7H7O+
119.049	16	C8H7O+
123.0438	52	C7H7O2+
131.0485	17	C9H7O+
137.0601	47	C8H9O2+
146.0603	26	C9H8NO+
147.0681	15	C9H9NO+
148.076	38	C9H10NO+
149.0594	14	C9H9O2+
162.0551	55	C9H8NO2+
163.0625	104	C9H9NO2+
174.0552	12	C10H8NO2+
176.0705	27	C10H10NO2+
177.0779	22	C10H11NO2+
190.0869	33	C11H12NO2+
210.0918	45	C14H12NO+
212.1074	31	C14H14NO+
214.086	26	C13H12NO2+
222.092	38	C15H12NO+
224.1068	38	C15H14NO+
228.1021	26	C14H14NO2+
238.0871	65	C15H12NO2+
240.1019	107	C15H14NO2+
241.11	38	C15H15NO2+
242.1175	56	C15H16NO2+
250.0873	27	C16H12NO2+
252.1015	106	C16H14NO2+
253.1101	52	C16H15NO2+
254.1178	45	C16H16NO2+
256.0966	43	C15H14NO3+
266.0819	52	C16H12NO3+
266.1172	33	C17H16NO2+
267.0891	38	C16H13NO3+
267.1264	21	C17H17NO2+
268.0972	163	C16H14NO3+
268.1338	42	C17H18NO2+
269.1045	442	C16H15NO3+
270.1128	149	C16H16NO3+
278.1182	23	C18H16NO2+
279.1255	31	C18H17NO2+
280.097	75	C17H14NO3+
280.1342	39	C18H18NO2+
281.1049	49	C17H15NO3+
282.1122	412	C17H16NO3+
283.1198	34	C17H17NO3+
284.091	56	C16H14NO4+
284.1283	80	C17H18NO3+
285.0999	94	C16H15NO4+
294.1123	84	C18H16NO3+
295.1211	51	C18H17NO3+
296.0911	105	C17H14NO4+
296.1289	142	C18H18NO3+
297.0993	184	C17H15NO4+
298.1072	999	C17H16NO4+
308.1274	67	C19H18NO3+
310.107	446	C18H16NO4+
310.1437	34	C19H20NO3+
311.1163	50	C18H17NO4+
312.122	175	C18H18NO4+
313.1301	29	C18H19NO4+
322.1434	20	C20H20NO3+
326.1386	678	C19H20NO4+
342.1699	23	C20H24NO4+
352.1921	13	C22H26NO3+
354.1703	163	C21H24NO4+
368.1865	31	C22H26NO4+
