Mass spectrum: ortho-Hydroxyatorvastatin; LC-ESI-QFT; MS2; CE: 75%; R=17500; [M+H]+
Name: ortho-Hydroxyatorvastatin
Name: Orthohydroxyatorvastatin
Name: (3R,5R)-7-[2-(4-fluorophenyl)-4-[(2-hydroxyphenyl)carbamoyl]-3-phenyl-5-propan-2-ylpyrrol-1-yl]-3,5-dihydroxyheptanoic acid
Formula: C33H35FN2O6
Exact mass: 574.2479151
SMILES: CC(C1=C(C(NC2=CC=CC=C2O)=O)C(C3=CC=CC=C3)=C(C4=CC=C(F)C=C4)N1CC[C@@H](O)C[C@@H](O)CC(O)=O)C
InChI: InChI=1S/C33H35FN2O6/c1-20(2)31-30(33(42)35-26-10-6-7-11-27(26)39)29(21-8-4-3-5-9-21)32(22-12-14-23(34)15-13-22)36(31)17-16-24(37)18-25(38)19-28(40)41/h3-15,20,24-25,37-39H,16-19H2,1-2H3,(H,35,42)(H,40,41)/t24-,25-/m1/s1
Instrument: Exploris 240 Orbitrap Thermo Scientific
Instrument type: LC-ESI-QFT
Ms type: MS2
Ion mode: POSITIVE
Ionization: ESI
Fragmentation mode: HCD
Collision energy: 75 % (nominal)
Resolution: 17500
Column name: XBridge C18 3.5um, 2.1x50mm, Waters
Retention time: 9.950 min
Base peak: 575.2551
Precursor m/z: 575.2552
Precursor type: [M+H]+
m/z	relative intensity	assigned
69.0338	15	C4H5O+
71.0129	15	C3H3O2+
71.0491	19	C4H7O+
77.0385	11	C6H5+
79.0543	51	C6H7+
80.0495	226	C5H6N+
83.0492	50	C5H7O+
91.0543	30	C7H7+
97.0285	15	C5H5O2+
101.0596	13	C5H9O2+
103.0544	14	C8H7+
104.0493	45	C7H6N+
108.0445	178	C6H6NO+
109.0447	31	C7H6F+
115.0542	81	C9H7+
117.0574	24	C8H7N+
121.0447	15	C8H6F+
122.04	59	C7H5FN+
127.0545	17	C10H7+
128.0619	23	C10H8+
129.07	46	C10H9+
133.0448	60	C9H6F+
135.048	14	C8H6FN+
136.0392	14	C7H6NO2+
148.0553	7	C9H7FN+
153.0698	15	C12H9+
154.0653	76	C11H8N+
155.0609	15	C10H7N2+
167.0728	16	C12H9N+
172.056	34	C11H7FN+
180.0813	15	C13H10N+
198.0721	11	C13H9FN+
202.0783	43	C16H10+
203.0864	65	C16H11+
209.0761	91	C15H10F+
217.0883	21	C16H11N+
218.0968	14	C13H13FNO+
220.0684	16	C16H9F+
221.0762	46	C16H10F+
223.0921	26	C16H12F+
230.0971	73	C17H12N+
233.0763	179	C17H10F+
235.0793	193	C16H10FN+
236.0868	31	C16H11FN+
237.0956	62	C16H12FN+
238.1027	103	C16H13FN+
248.0873	305	C17H11FN+
249.0949	245	C17H12FN+
250.103	999	C17H13FN+
259.0916	18	C19H12F+
260.0877	18	C18H11FN+
261.0946	75	C18H12FN+
262.103	121	C18H13FN+
263.1104	29	C18H14FN+
264.082	71	C17H11FNO+
264.1185	62	C18H15FN+
274.1029	86	C19H13FN+
275.111	28	C19H14FN+
276.0817	68	C18H11FNO+
276.1179	426	C19H15FN+
277.126	18	C19H16FN+
278.0982	8	C18H13FNO+
278.1343	15	C19H17FN+
287.1099	12	C20H14FN+
288.1189	41	C20H15FN+
289.1249	20	C20H16FN+
300.1191	21	C21H15FN+
302.1348	66	C21H17FN+
362.1563	13	C23H21FNO2+
