Mass spectrum: 3-(3,5-Dichlorophenyl)-N-(1-methylethyl)-2,4-dioxo-1-imidazolidinecarboxamide; LC-ESI-QFT; MS2; CE: 180%; R=15000; [M+H]+
Name: 3-(3,5-Dichlorophenyl)-N-(1-methylethyl)-2,4-dioxo-1-imidazolidinecarboxamide
Name: Iprodione
Name: 3-(3,5-dichlorophenyl)-2,4-dioxo-N-propan-2-ylimidazolidine-1-carboxamide
Formula: C13H13Cl2N3O3
Exact mass: 329.0333966
SMILES: CC(C)NC(=O)N1CC(=O)N(C1=O)C1=CC(Cl)=CC(Cl)=C1
InChI: InChI=1S/C13H13Cl2N3O3/c1-7(2)16-12(20)17-6-11(19)18(13(17)21)10-4-8(14)3-9(15)5-10/h3-5,7H,6H2,1-2H3,(H,16,20)
Instrument: Q Exactive Plus
Instrument type: LC-ESI-QFT
Ms type: MS2
Ion mode: POSITIVE
Ionization: ESI
Fragmentation mode: HCD
Collision energy: 180 % (nominal)
Resolution: 15000
Column name: XBridge C18 3.5um, 2.1x50mm, Waters
Retention time: 10.931 min
Base peak: 164.9846
Precursor m/z: 330.0407
Precursor type: [M+H]+
Precursor intensity: 12843620.78
m/z	relative intensity	assigned
50.0151	47	C4H2+
51.023	95	C4H3+
53.0022	18	C3HO+
53.0385	14	C4H5+
56.0131	155	C2H2NO+
62.0151	33	C5H2+
63.0229	123	C5H3+
65.0386	78	C5H5+
72.984	96	C3H2Cl+
74.0151	999	C6H2+
75.0229	373	C6H3+
76.0181	36	C5H2N+
77.0385	22	C6H5+
81.0335	13	C5H5O+
84.9839	64	C4H2Cl+
86.9631	14	C3ClO+
90.0339	91	C6H4N+
95.049	50	C6H7O+
98.9997	21	C5H4Cl+
108.9839	218	C6H2Cl+
109.9917	11	C6H3Cl+
127.0184	30	C6H6ClN+
129.0103	34	C6H6ClO+
138.0108	39	C7H5ClN+
139.0057	50	C6H4ClN2+
