Mass spectrum: Isavuconazole; LC-ESI-QFT; MS2; CE: 25%; R=15000; [M+H]+
Name: Isavuconazole
Name: 4-[2-[(2R,3R)-3-[2,5-bis(fluoranyl)phenyl]-3-oxidanyl-4-(1,2,4-triazol-1-yl)butan-2-yl]-1,3-thiazol-4-yl]benzenecarbonitrile
Name: 4-[2-[3-(2,5-difluorophenyl)-3-hydroxy-4-(1,2,4-triazol-1-yl)butan-2-yl]-1,3-thiazol-4-yl]benzonitrile
Formula: C22H17F2N5OS
Exact mass: 437.1121876
SMILES: CC(C1=NC(=CS1)C2=CC=C(C=C2)C#N)C(CN3C=NC=N3)(C4=C(C=CC(=C4)F)F)O
InChI: InChI=1S/C22H17F2N5OS/c1-14(21-28-20(10-31-21)16-4-2-15(9-25)3-5-16)22(30,11-29-13-26-12-27-29)18-8-17(23)6-7-19(18)24/h2-8,10,12-14,30H,11H2,1H3
Instrument: Exploris 240 Thermo Scientific
Instrument type: LC-ESI-QFT
Ms type: MS2
Ion mode: POSITIVE
Ionization: ESI
Fragmentation mode: HCD
Collision energy: 25 % (nominal)
Resolution: 15000
Column name: XBridge C18 3.5um, 2.1x50mm, Waters
Retention time: 10.216 min
Base peak: 438.1191
Precursor m/z: 438.1195
Precursor type: [M+H]+
m/z	relative intensity	assigned
70.0398	18	C2H4N3+
82.0399	16	C3H4N3+
127.0353	88	C7H5F2+
154.0465	20	C8H6F2N+
155.0302	41	C8H5F2O+
197.0518	32	C9H7F2N2O+
202.0777	105	C16H10+
213.0483	71	C12H9N2S+
214.0558	101	C7H9FN5S+
215.0638	231	C12H11N2S+
224.0629	999	C10H8F2N3O+
351.0764	38	C20H13F2N2S+
369.087	191	C20H15F2N2OS+
