Mass spectrum: Theophylline; LC-ESI-QFT; MS2; CE: 75%; R=17500; [M-H]-
Name: Theophylline
Name: 1,3-dimethyl-7H-purine-2,6-dione
Formula: C7H8N4O2
Exact mass: 180.0647255
SMILES: CN1C2=C(C(=O)N(C1=O)C)NC=N2
InChI: InChI=1S/C7H8N4O2/c1-10-5-4(8-3-9-5)6(12)11(2)7(10)13/h3H,1-2H3,(H,8,9)
Instrument: Exploris 240 Orbitrap Thermo Scientific
Instrument type: LC-ESI-QFT
Ms type: MS2
Ion mode: NEGATIVE
Ionization: ESI
Fragmentation mode: HCD
Collision energy: 75 % (nominal)
Resolution: 17500
Column name: XBridge C18 3.5um, 2.1x50mm, Waters
Retention time: 2.608 min
Base peak: 179.0574
Precursor m/z: 179.0574
Precursor type: [M-H]-
m/z	relative intensity	assigned
65.9985	55	C3NO-
67.03	29	C3H3N2-
79.0176	119	C3HN3-
94.0411	213	C4H4N3-
107.0127	47	C4HN3O-
109.0284	21	C4H3N3O-
120.0205	12	C5H2N3O-
121.0284	17	C5H3N3O-
122.036	915	C5H4N3O-
135.0075	195	C5HN3O2-
135.0309	91	C5H3N4O-
136.0393	52	C5H4N4O-
164.034	999	C6H4N4O2-
179.0574	311	C7H7N4O2-
