Mass spectrum: Apalutamide; LC-ESI-QFT; MS2; CE: 45%; R=15000; [M+H]+
Name: Apalutamide
Name: 4-[7-[6-cyano-5-(trifluoromethyl)pyridin-3-yl]-8-oxo-6-sulfanylidene-5,7-diazaspiro[3.4]octan-5-yl]-2-fluoro-N-methylbenzamide
Name: 4-[7-[6-cyano-5-(trifluoromethyl)pyridin-3-yl]-8-oxidanylidene-6-sulfanylidene-5,7-diazaspiro[3.4]octan-5-yl]-2-fluoranyl-N-methyl-benzamide
Formula: C21H15F4N5O2S
Exact mass: 477.0882586
SMILES: CNC(=O)C1=C(C=C(C=C1)N2C(=S)N(C(=O)C23CCC3)C4=CC(=C(N=C4)C#N)C(F)(F)F)F
InChI: InChI=1S/C21H15F4N5O2S/c1-27-17(31)13-4-3-11(8-15(13)22)30-19(33)29(18(32)20(30)5-2-6-20)12-7-14(21(23,24)25)16(9-26)28-10-12/h3-4,7-8,10H,2,5-6H2,1H3,(H,27,31)
Instrument: Q Exactive
Instrument type: LC-ESI-QFT
Ms type: MS2
Ion mode: POSITIVE
Ionization: ESI
Fragmentation mode: HCD
Collision energy: 45 % (nominal)
Resolution: 15000
Column name: XBridge C18 3.5um, 2.1x50mm, Waters
Retention time: 8.898 min
Base peak: 478.0959
Precursor m/z: 478.0955
Precursor type: [M+H]+
Precursor intensity: 434274631.69
m/z	relative intensity	assigned
58.0288	57	C2H4NO+
109.0449	11	C7H6F+
136.0558	90	C8H7FN+
156.0279	94	C7H7FNS+
162.0351	999	C9H5FNO+
164.0871	72	C10H11FN+
184.0229	41	C8H7FNOS+
190.0664	211	C11H9FNO+
193.0773	717	C10H10FN2O+
212.0432	54	C14H6F2+
221.1086	205	C12H14FN2O+
229.9999	97	C13H4F2S+
419.0222	188	C18H7F4N4O2S+
450.0643	112	C19H12F4N5O2S+
