Mass spectrum: Valerophenone; LC-ESI-QFT; MS2; CE: 20%; R=15000; [M+H]+
Name: Valerophenone
Name: 1-phenylpentan-1-one
Formula: C11H14O
Exact mass: 162.1044651
SMILES: CCCCC(=O)C1=CC=CC=C1
InChI: InChI=1S/C11H14O/c1-2-3-9-11(12)10-7-5-4-6-8-10/h4-8H,2-3,9H2,1H3
Instrument: Exploris 240 Thermo Scientific
Instrument type: LC-ESI-QFT
Ms type: MS2
Ion mode: POSITIVE
Ionization: ESI
Fragmentation mode: HCD
Collision energy: 20 % (nominal)
Resolution: 15000
Column name: XBridge C18 3.5um, 2.1x50mm, Waters
Retention time: 9.378 min
Base peak: 132.9581
Precursor m/z: 163.1117
Precursor type: [M+H]+
m/z	relative intensity	assigned
57.0698	456	C4H9+
59.049	17	C3H7O+
71.0491	62	C4H7O+
85.0647	415	C5H9O+
91.0542	66	C7H7+
105.0697	22	C8H9+
107.0491	204	C7H7O+
117.0698	23	C9H9+
121.0648	29	C8H9O+
145.101	125	C11H13+
163.1116	999	C11H15O+
