Mass spectrum: Hydroxytorasemide; LC-ESI-QFT; MS2; CE: 120%; R=17500; [M+H]+
Name: Hydroxytorasemide
Name: Torasemide metabolite M1
Name: 1-[4-[3-(hydroxymethyl)anilino]pyridin-3-yl]sulfonyl-3-propan-2-ylurea
Formula: C16H20N4O4S
Exact mass: 364.1205261
SMILES: CC(C)NC(=O)NS(=O)(=O)C1=C(C=CN=C1)NC2=CC=CC(=C2)CO
InChI: InChI=1S/C16H20N4O4S/c1-11(2)18-16(22)20-25(23,24)15-9-17-7-6-14(15)19-13-5-3-4-12(8-13)10-21/h3-9,11,21H,10H2,1-2H3,(H,17,19)(H2,18,20,22)
Instrument: Exploris 240 Orbitrap Thermo Scientific
Instrument type: LC-ESI-QFT
Ms type: MS2
Ion mode: POSITIVE
Ionization: ESI
Fragmentation mode: HCD
Collision energy: 120 % (nominal)
Resolution: 17500
Column name: XBridge C18 3.5um, 2.1x50mm, Waters
Retention time: 4.126 min
Base peak: 365.1276
Precursor m/z: 365.1278
Precursor type: [M+H]+
m/z	relative intensity	assigned
51.0228	10	C4H3+
53.0386	11	C4H5+
65.0386	16	C5H5+
67.0418	32	C4H5N+
77.0386	75	C6H5+
78.034	13	C5H4N+
79.0417	24	C5H5N+
81.0449	33	C4H5N2+
89.0386	63	C7H5+
90.0463	20	C7H6+
91.0544	15	C7H7+
95.0495	19	C6H7O+
98.0058	24	C4H4NS+
101.0385	18	C8H5+
103.0545	20	C8H7+
105.0449	23	C6H5N2+
114.0466	58	C9H6+
115.0542	999	C9H7+
116.0494	76	C8H6N+
117.0575	71	C8H7N+
125.0167	12	C5H5N2S+
127.0541	67	C10H7+
128.0496	146	C9H6N+
129.0449	41	C8H5N2+
129.0567	10	CH11N3O2S+
130.0657	22	C9H8N+
137.0172	21	C6H5N2S+
140.0497	166	C10H6N+
141.0573	127	C10H7N+
142.0524	33	C9H6N2+
142.0654	89	C10H8N+
145.0648	18	C10H9O+
146.0602	26	C9H8NO+
153.0573	42	C11H7N+
154.0652	114	C11H8N+
155.0607	106	C10H7N2+
156.0683	27	C10H8N2+
157.076	12	C10H9N2+
167.0603	64	C3H11N4O2S+
168.0683	477	C11H8N2+
169.076	382	C11H9N2+
179.0603	40	C12H7N2+
180.0684	39	C12H8N2+
181.0761	357	C12H9N2+
182.0841	152	C12H10N2+
187.033	24	C10H7N2S+
199.0868	62	C12H11N2O+
