Mass spectrum: Procymidone; LC-ESI-QFT; MS2; CE: 45%; R=15000; [M+H]+
Name: Procymidone
Name: 3-(3,5-dichlorophenyl)-1,5-dimethyl-3-azabicyclo[3.1.0]hexane-2,4-dione
Formula: C13H11Cl2NO2
Exact mass: 283.016684
SMILES: CC12CC1(C)C(=O)N(C2=O)C1=CC(Cl)=CC(Cl)=C1
InChI: InChI=1S/C13H11Cl2NO2/c1-12-6-13(12,2)11(18)16(10(12)17)9-4-7(14)3-8(15)5-9/h3-5H,6H2,1-2H3
Instrument: Q Exactive Plus
Instrument type: LC-ESI-QFT
Ms type: MS2
Ion mode: POSITIVE
Ionization: ESI
Fragmentation mode: HCD
Collision energy: 45 % (nominal)
Resolution: 15000
Column name: XBridge C18 3.5um, 2.1x50mm, Waters
Retention time: 10.266 min
Base peak: 164.9846
Precursor m/z: 284.024
Precursor type: [M+H]+
Precursor intensity: 4449333.2
m/z	relative intensity	assigned
65.0386	47	C5H5+
67.0543	806	C5H7+
69.0699	222	C5H9+
85.0649	54	C5H9O+
95.0492	999	C6H7O+
113.0598	312	C6H9O2+
161.9872	50	C6H6Cl2N+
171.9716	176	C7H4Cl2N+
178.0417	85	C10H9ClN+
185.9872	287	C8H6Cl2N+
187.9664	42	C7H4Cl2NO+
192.0579	51	C11H11ClN+
193.0651	59	C11H12ClN+
197.9872	74	C9H6Cl2N+
200.0026	32	C9H8Cl2N+
203.0494	83	C12H10ClN+
212.003	170	C10H8Cl2N+
213.9828	67	C9H6Cl2NO+
221.06	61	C12H12ClNO+
228.034	332	C11H12Cl2N+
238.0184	174	C12H10Cl2N+
241.0055	43	C11H9Cl2NO+
256.029	966	C12H12Cl2NO+
284.0243	213	C13H12Cl2NO2+
