Mass spectrum: Bicalutamide; LC-ESI-QFT; MS2; CE: 120%; R=15000; [M+H]+
Name: Bicalutamide
Name: N-[4-cyano-3-(trifluoromethyl)phenyl]-3-(4-fluorophenyl)sulfonyl-2-hydroxy-2-methylpropanamide
Formula: C18H14F4N2O4S
Exact mass: 430.0610408
SMILES: CC(O)(CS(=O)(=O)C1=CC=C(F)C=C1)C(=O)NC1=CC(=C(C=C1)C#N)C(F)(F)F
InChI: InChI=1S/C18H14F4N2O4S/c1-17(26,10-29(27,28)14-6-3-12(19)4-7-14)16(25)24-13-5-2-11(9-23)15(8-13)18(20,21)22/h2-8,26H,10H2,1H3,(H,24,25)
Instrument: Q Exactive Plus
Instrument type: LC-ESI-QFT
Ms type: MS2
Ion mode: POSITIVE
Ionization: ESI
Fragmentation mode: HCD
Collision energy: 120 % (nominal)
Resolution: 15000
Column name: XBridge C18 3.5um, 2.1x50mm, Waters
Retention time: 8.374 min
Base peak: 164.9846
Precursor m/z: 431.0683
Precursor type: [M+H]+
Precursor intensity: 31308584.26
m/z	relative intensity	assigned
50.0152	12	C4H2+
51.0229	27	C4H3+
53.0022	35	C3HO+
63.0229	39	C5H3+
69.0134	16	C4H2F+
71.0291	61	C4H4F+
74.0151	181	C6H2+
75.0229	999	C6H3+
79.0178	12	C5H3O+
83.0291	13	C5H4F+
90.0339	35	C6H4N+
95.0292	162	C6H4F+
100.0182	30	C7H2N+
111.0441	10	C6H7O2+
113.0397	319	C6H6FO+
115.0012	44	C5H4FS+
117.0446	12	C7H5N2+
118.0525	18	C7H6N2+
123.0353	330	C6H4FN2+
140.0306	25	C7H4F2N+
142.9964	11	F4H3O4+
148.0194	15	C8H3FNO+
148.0307	12	C12H4+
185.052	20	C8H7F2N2O+
