Mass spectrum: Phenylephrine 3-O-sulfate; LC-ESI-QFT; MS2; CE: 180%; R=17500; [M-H]-
Name: Phenylephrine 3-O-sulfate
Name: [3-[1-hydroxy-2-(methylamino)ethyl]phenyl] hydrogen sulfate
Formula: C9H13NO5S
Exact mass: 247.0514435
SMILES: CNCC(C1=CC(=CC=C1)OS(=O)(=O)O)O
InChI: InChI=1S/C9H13NO5S/c1-10-6-9(11)7-3-2-4-8(5-7)15-16(12,13)14/h2-5,9-11H,6H2,1H3,(H,12,13,14)
Instrument: Exploris 240 Orbitrap Thermo Scientific
Instrument type: LC-ESI-QFT
Ms type: MS2
Ion mode: NEGATIVE
Ionization: ESI
Fragmentation mode: HCD
Collision energy: 180 % (nominal)
Resolution: 17500
Column name: XBridge C18 3.5um, 2.1x50mm, Waters
Retention time: 0.984 min
Base peak: 246.0441
Precursor m/z: 246.0442
Precursor type: [M-H]-
m/z	relative intensity	assigned
64.0194	41	C4H2N-
65.0396	270	C5H5-
79.9573	323	O3S-
92.0268	287	C6H4O-
93.0345	671	C6H5O-
108.0217	35	C6H4O2-
121.0295	999	C7H5O2-
