Mass spectrum: C6O4; LC-ESI-QFT; MS2; CE: 60%; R=17500; [M-H]-
Name: C6O4
Name: Acetic acid, 2,2-difluoro-2-[[2,2,4,5-tetrafluoro-5-(trifluoromethoxy)-1,3-dioxolan-4-yl]oxy]-
Name: 2,2-difluoro-2-[[2,2,4,5-tetrafluoro-5-(trifluoromethoxy)-1,3-dioxolan-4-yl]oxy]acetic acid
Formula: C6HF9O6
Exact mass: 339.962941732
SMILES: C(=O)(C(OC1(C(OC(O1)(F)F)(OC(F)(F)F)F)F)(F)F)O
InChI: InChI=1S/C6HF9O6/c7-2(8,1(16)17)18-3(9)4(10,19-5(11,12)13)21-6(14,15)20-3/h(H,16,17)
Instrument: Exploris 240 Orbitrap Thermo Scientific
Instrument type: LC-ESI-QFT
Ms type: MS2
Ion mode: NEGATIVE
Ionization: ESI
Fragmentation mode: HCD
Collision energy: 60 % (nominal)
Resolution: 17500
Column name: XBridge C18 3.5um, 2.1x50mm, Waters
Retention time: 7.722 min
Base peak: 112.9856
Precursor m/z: 338.9557
Precursor type: [M-H]-
m/z	relative intensity	assigned
84.9907	999	CF3O-
112.9859	139	C2F3O2-
