Mass spectrum: 8-Hydroxymirtazapine; LC-ESI-QFT; MS2; CE: 90%; R=17500; [M+H]+
Name: 8-Hydroxymirtazapine
Name: 5-methyl-2,5,19-triazatetracyclo[13.4.0.02,7.08,13]nonadeca-1(15),8,10,12,16,18-hexaen-17-ol
Formula: C17H19N3O
Exact mass: 281.1528122
SMILES: CN1CCN2C(C1)C3=CC=CC=C3CC4=CC(=CN=C42)O
InChI: InChI=1S/C17H19N3O/c1-19-6-7-20-16(11-19)15-5-3-2-4-12(15)8-13-9-14(21)10-18-17(13)20/h2-5,9-10,16,21H,6-8,11H2,1H3
Instrument: Exploris 240 Orbitrap Thermo Scientific
Instrument type: LC-ESI-QFT
Ms type: MS2
Ion mode: POSITIVE
Ionization: ESI
Fragmentation mode: HCD
Collision energy: 90 % (nominal)
Resolution: 17500
Column name: XBridge C18 3.5um, 2.1x50mm, Waters
Retention time: 3.696 min
Base peak: 282.1597
Precursor m/z: 282.1601
Precursor type: [M+H]+
m/z	relative intensity	assigned
53.0385	61	C4H5+
56.0495	14	C3H6N+
58.0651	133	C3H8N+
68.013	127	C3H2NO+
70.065	64	C4H8N+
72.0807	438	C4H10N+
78.0342	20	C5H4N+
80.0494	47	C5H6N+
91.0542	52	C7H7+
105.0447	22	C6H5N2+
105.0697	27	C8H9+
108.0442	68	C6H6NO+
115.0542	88	C9H7+
116.0493	60	C8H6N+
117.0698	17	C9H9+
129.0703	36	C10H9+
130.0655	24	C9H8N+
131.073	40	C9H9N+
141.0699	38	C11H9+
144.0811	36	C10H10N+
147.055	23	C8H7N2O+
149.0712	18	C8H9N2O+
154.0652	16	C11H8N+
166.0652	329	C12H8N+
170.096	11	C12H12N+
181.0759	34	C12H9N2+
182.0836	75	C12H10N2+
183.0685	49	C12H9NO+
183.0918	46	C12H11N2+
184.0758	28	C12H10NO+
193.0757	13	C13H9N2+
194.0842	38	C13H10N2+
195.0684	40	C13H9NO+
196.0758	54	C13H10NO+
198.0912	10	C13H12NO+
209.0712	15	C13H9N2O+
210.0787	555	C13H10N2O+
211.0867	999	C13H11N2O+
223.0871	38	C14H11N2O+
225.1025	52	C14H13N2O+
235.0862	51	C15H11N2O+
