Mass spectrum: Linuron; LC-ESI-QFT; MS2; CE: 15%; R=15000; [M+H]+
Name: Linuron
Name: 3-(3,4-dichlorophenyl)-1-methoxy-1-methylurea
Formula: C9H10Cl2N2O2
Exact mass: 248.0119329
SMILES: CON(C)C(=O)NC1=CC=C(Cl)C(Cl)=C1
InChI: InChI=1S/C9H10Cl2N2O2/c1-13(15-2)9(14)12-6-3-4-7(10)8(11)5-6/h3-5H,1-2H3,(H,12,14)
Instrument: Q Exactive Plus
Instrument type: LC-ESI-QFT
Ms type: MS2
Ion mode: POSITIVE
Ionization: ESI
Fragmentation mode: HCD
Collision energy: 15 % (nominal)
Resolution: 15000
Column name: XBridge C18 3.5um, 2.1x50mm, Waters
Retention time: 8.860 min
Base peak: 249.0193
Precursor m/z: 249.0192
Precursor type: [M+H]+
Precursor intensity: 425494460.33
m/z	relative intensity	assigned
60.0444	73	C2H6NO+
62.06	208	C2H8NO+
88.0393	65	C3H6NO2+
106.0499	12	ClH11N2O2+
159.9715	367	C6H4Cl2N+
160.9792	24	C6H5Cl2N+
182.024	395	C8H7ClN2O+
187.9661	15	C7H4Cl2NO+
216.9927	15	C8H7Cl2N2O+
218.0007	35	C8H8Cl2N2O+
249.0191	999	C9H11Cl2N2O2+
