Mass spectrum: Dicamba; LC-ESI-QFT; MS2; CE: 90%; R=15000; [M+H]+
Name: Dicamba
Name: 3,6-dichloro-2-methoxybenzoic acid
Formula: C8H6Cl2O3
Exact mass: 219.9693994
SMILES: COC1=C(Cl)C=CC(Cl)=C1C(O)=O
InChI: InChI=1S/C8H6Cl2O3/c1-13-7-5(10)3-2-4(9)6(7)8(11)12/h2-3H,1H3,(H,11,12)
Instrument: Q Exactive Plus
Instrument type: LC-ESI-QFT
Ms type: MS2
Ion mode: POSITIVE
Ionization: ESI
Fragmentation mode: HCD
Collision energy: 90 % (nominal)
Resolution: 15000
Column name: XBridge C18 3.5um, 2.1x50mm, Waters
Retention time: 6.184 min
Base peak: 164.9846
Precursor m/z: 220.9767
Precursor type: [M+H]+
Precursor intensity: 2073491.22
m/z	relative intensity	assigned
72.984	127	C3H2Cl+
96.9841	191	C5H2Cl+
108.9839	54	C6H2Cl+
114.9947	83	C5H4ClO+
124.9789	123	C6H2ClO+
152.9738	370	C7H2ClO2+
159.9478	999	C6H2Cl2O+
187.9431	80	C7H2Cl2O2+
205.9533	356	C7H4Cl2O3+
