Mass spectrum: Torasemidecarboxylic acid; LC-ESI-QFT; MS2; CE: 60%; R=17500; [M+H]+
Name: Torasemidecarboxylic acid
Name: Torsemide Carboxylic Acid
Name: 3-[[3-(propan-2-ylcarbamoylsulfamoyl)pyridin-4-yl]amino]benzoic acid
Formula: C16H18N4O5S
Exact mass: 378.0997907
SMILES: CC(C)NC(=O)NS(=O)(=O)C1=C(C=CN=C1)NC2=CC=CC(=C2)C(=O)O
InChI: InChI=1S/C16H18N4O5S/c1-10(2)18-16(23)20-26(24,25)14-9-17-7-6-13(14)19-12-5-3-4-11(8-12)15(21)22/h3-10H,1-2H3,(H,17,19)(H,21,22)(H2,18,20,23)
Instrument: Exploris 240 Orbitrap Thermo Scientific
Instrument type: LC-ESI-QFT
Ms type: MS2
Ion mode: POSITIVE
Ionization: ESI
Fragmentation mode: HCD
Collision energy: 60 % (nominal)
Resolution: 17500
Column name: XBridge C18 3.5um, 2.1x50mm, Waters
Retention time: 4.459 min
Base peak: 379.1067
Precursor m/z: 379.1071
Precursor type: [M+H]+
m/z	relative intensity	assigned
98.0061	7	C4H4NS+
115.0542	38	C9H7+
125.0164	52	C5H5N2S+
126.001	19	C5H4NOS+
128.0165	5	C5H6NOS+
142.065	33	C10H8N+
143.06	9	C9H7N2+
152.0338	27	C7H6NO3+
167.0603	133	C11H7N2+
168.0682	99	C11H8N2+
169.076	999	C11H9N2+
170.0794	5	C6H10N4O2+
171.0554	10	C10H7N2O+
175.0327	26	C9H7N2S+
183.0552	34	C5H13NO4S+
184.0633	14	C11H8N2O+
185.0707	25	C11H9N2O+
187.0319	53	C10H7N2S+
195.0541	69	C4H11N4O3S+
203.0272	62	C10H7N2OS+
205.0434	18	C10H9N2OS+
211.0503	127	C12H7N2O2+
213.0658	216	C12H9N2O2+
216.0357	14	C11H8N2OS+
228.0528	69	C12H8N2O3+
229.0607	94	C12H9N2O3+
231.0228	47	C11H7N2O2S+
259.0172	148	C12H7N2O3S+
260.0249	34	C12H8N2O3S+
277.0278	58	C12H9N2O4S+
294.0543	291	C12H12N3O4S+
320.0341	18	C13H10N3O5S+
