Mass spectrum: Vinclozolin; LC-ESI-QFT; MS2; CE: 60%; R=15000; [M+H]+
Name: Vinclozolin
Name: 3-(3,5-dichlorophenyl)-5-ethenyl-5-methyl-1,3-oxazolidine-2,4-dione
Formula: C12H9Cl2NO3
Exact mass: 284.9959485
SMILES: CC1(OC(=O)N(C1=O)C1=CC(Cl)=CC(Cl)=C1)C=C
InChI: InChI=1S/C12H9Cl2NO3/c1-3-12(2)10(16)15(11(17)18-12)9-5-7(13)4-8(14)6-9/h3-6H,1H2,2H3
Instrument: Q Exactive Plus
Instrument type: LC-ESI-QFT
Ms type: MS2
Ion mode: POSITIVE
Ionization: ESI
Fragmentation mode: HCD
Collision energy: 60 % (nominal)
Resolution: 15000
Column name: XBridge C18 3.5um, 2.1x50mm, Waters
Retention time: 13.008 min
Base peak: 164.9846
Precursor m/z: 286.0032
Precursor type: [M+H]+
Precursor intensity: 1605370.78
m/z	relative intensity	assigned
143.0729	58	C10H9N+
144.0808	229	C10H10N+
164.0261	116	C9H7ClN+
173.9871	999	C7H6Cl2N+
177.0339	54	C10H8ClN+
178.042	72	C10H9ClN+
179.0495	79	C10H10ClN+
184.992	31	C9H7Cl2+
188.0703	62	C11H10NO2+
212.0029	64	C10H8Cl2N+
217.9769	90	C8H6Cl2NO2+
