Mass spectrum: Pramiracetam; LC-ESI-QFT; MS2; CE: 30%; R=17500; [M+H]+
Name: Pramiracetam
Name: N-[2-[di(propan-2-yl)amino]ethyl]-2-(2-oxopyrrolidin-1-yl)acetamide
Formula: C14H27N3O2
Exact mass: 269.210327104
SMILES: CC(C)N(CCNC(=O)CN1CCCC1=O)C(C)C
InChI: InChI=1S/C14H27N3O2/c1-11(2)17(12(3)4)9-7-15-13(18)10-16-8-5-6-14(16)19/h11-12H,5-10H2,1-4H3,(H,15,18)
Instrument: Exploris 240 Orbitrap Thermo Scientific
Instrument type: LC-ESI-QFT
Ms type: MS2
Ion mode: POSITIVE
Ionization: ESI
Fragmentation mode: HCD
Collision energy: 30 % (nominal)
Resolution: 17500
Column name: XBridge C18 3.5um, 2.1x50mm, Waters
Retention time: 1.856 min
Base peak: 270.2173
Precursor m/z: 270.2176
Precursor type: [M+H]+
m/z	relative intensity	assigned
102.1276	28	C6H16N+
125.0709	3	C6H9N2O+
126.0551	3	C6H8NO2+
128.1434	36	C8H18N+
169.0971	371	C8H13N2O2+
228.1703	61	C11H22N3O2+
270.2175	999	C14H28N3O2+
