Mass spectrum: Quinoxyfen; LC-ESI-QFT; MS2; CE: 45%; R=15000; [M+H]+
Name: Quinoxyfen
Name: 5,7-dichloro-4-(4-fluorophenoxy)quinoline
Formula: C15H8Cl2FNO
Exact mass: 306.9966975
SMILES: FC1=CC=C(OC2=CC=NC3=CC(Cl)=CC(Cl)=C23)C=C1
InChI: InChI=1S/C15H8Cl2FNO/c16-9-7-12(17)15-13(8-9)19-6-5-14(15)20-11-3-1-10(18)2-4-11/h1-8H
Instrument: Q Exactive Plus
Instrument type: LC-ESI-QFT
Ms type: MS2
Ion mode: POSITIVE
Ionization: ESI
Fragmentation mode: HCD
Collision energy: 45 % (nominal)
Resolution: 15000
Column name: XBridge C18 3.5um, 2.1x50mm, Waters
Retention time: 13.956 min
Base peak: 308.0044
Precursor m/z: 308.004
Precursor type: [M+H]+
Precursor intensity: 283474084.27
m/z	relative intensity	assigned
196.9795	107	C9H5Cl2N+
213.9822	54	C9H6Cl2NO+
244.0328	18	C14H8ClFN+
245.0404	34	C14H9ClFN+
272.0274	158	C15H8ClFNO+
280.0092	26	C14H9Cl2FN+
287.998	10	C15H8Cl2NO+
308.0042	999	C15H9Cl2FNO+
