Mass spectrum: Prothioconazole; LC-ESI-QFT; MS2; CE: 15%; R=15000; [M+H]+
Name: Prothioconazole
Name: 2-[2-(1-chlorocyclopropyl)-3-(2-chlorophenyl)-2-hydroxypropyl]-1H-1,2,4-triazole-3-thione
Formula: C14H15Cl2N3OS
Exact mass: 343.0312885
SMILES: C1CC1(C(CC2=CC=CC=C2Cl)(CN3C(=S)N=CN3)O)Cl
InChI: InChI=1S/C14H15Cl2N3OS/c15-11-4-2-1-3-10(11)7-14(20,13(16)5-6-13)8-19-12(21)17-9-18-19/h1-4,9,20H,5-8H2,(H,17,18,21)
Instrument: Exploris 240 Thermo Scientific
Instrument type: LC-ESI-QFT
Ms type: MS2
Ion mode: POSITIVE
Ionization: ESI
Fragmentation mode: HCD
Collision energy: 15 % (nominal)
Resolution: 15000
Column name: XBridge C18 3.5um, 2.1x50mm, Waters
Retention time: 11.770 min
Base peak: 344.0382
Precursor m/z: 344.0386
Precursor type: [M+H]+
m/z	relative intensity	assigned
102.012	11	C2H4N3S+
225.0229	25	C12H11Cl2+
290.0515	34	C14H13ClN3S+
326.0276	999	C14H14Cl2N3S+
