Mass spectrum: Cyphenothrin; LC-ESI-QFT; MS2; CE: 15%; R=15000; [M+H]+
Name: Cyphenothrin
Name: [cyano-(3-phenoxyphenyl)methyl] 2,2-dimethyl-3-(2-methylprop-1-enyl)cyclopropane-1-carboxylate
Formula: C24H25NO3
Exact mass: 375.1834437
SMILES: CC(=CC1C(C1(C)C)C(=O)OC(C#N)C2=CC(=CC=C2)OC3=CC=CC=C3)C
InChI: InChI=1S/C24H25NO3/c1-16(2)13-20-22(24(20,3)4)23(26)28-21(15-25)17-9-8-12-19(14-17)27-18-10-6-5-7-11-18/h5-14,20-22H,1-4H3
Instrument: Exploris 240 Thermo Scientific
Instrument type: LC-ESI-QFT
Ms type: MS2
Ion mode: POSITIVE
Ionization: ESI
Fragmentation mode: HCD
Collision energy: 15 % (nominal)
Resolution: 15000
Column name: XBridge C18 3.5um, 2.1x50mm, Waters
Retention time: 15.687 min
Base peak: 398.172
Precursor m/z: 376.1907
Precursor type: [M+H]+
m/z	relative intensity	assigned
121.1007	14	C9H13+
123.1166	165	C9H15+
151.1114	999	C10H15O+
181.0649	21	C13H9O+
208.0753	217	C14H10NO+
226.0856	37	C14H12NO2+
248.1066	17	C17H14NO+
330.1846	62	C23H24NO+
376.1903	111	C24H26NO3+
