Mass spectrum: 1,3,7-Trimethyluric acid; LC-ESI-QFT; MS2; CE: 45%; R=17500; [M+H]+
Name: 1,3,7-Trimethyluric acid
Name: 1,3,7-trimethyl-9H-purine-2,6,8-trione
Formula: C8H10N4O3
Exact mass: 210.0752902
SMILES: CN1C2=C(NC1=O)N(C(=O)N(C2=O)C)C
InChI: InChI=1S/C8H10N4O3/c1-10-4-5(9-7(10)14)11(2)8(15)12(3)6(4)13/h1-3H3,(H,9,14)
Instrument: Exploris 240 Orbitrap Thermo Scientific
Instrument type: LC-ESI-QFT
Ms type: MS2
Ion mode: POSITIVE
Ionization: ESI
Fragmentation mode: HCD
Collision energy: 45 % (nominal)
Resolution: 17500
Column name: XBridge C18 3.5um, 2.1x50mm, Waters
Retention time: 2.602 min
Base peak: 211.0825
Precursor m/z: 211.0826
Precursor type: [M+H]+
m/z	relative intensity	assigned
69.0446	5	C3H5N2+
83.0604	34	C4H7N2+
85.0397	10	C3H5N2O+
110.0713	4	C5H8N3+
111.0551	6	C5H7N2O+
124.0868	11	C6H10N3+
126.0661	159	C5H8N3O+
139.0379	8	C5H5N3O2+
152.0692	6	C6H8N4O+
154.0611	333	C6H8N3O2+
167.093	20	C7H11N4O+
169.0724	9	C6H9N4O2+
183.0873	9	C7H11N4O2+
196.0591	199	C7H8N4O3+
211.0826	999	C8H11N4O3+
