Mass spectrum: Linuron; LC-ESI-QFT; MS2; CE: 75%; R=15000; [M+H]+
Name: Linuron
Name: 3-(3,4-dichlorophenyl)-1-methoxy-1-methylurea
Formula: C9H10Cl2N2O2
Exact mass: 248.0119329
SMILES: CON(C)C(=O)NC1=CC=C(Cl)C(Cl)=C1
InChI: InChI=1S/C9H10Cl2N2O2/c1-13(15-2)9(14)12-6-3-4-7(10)8(11)5-6/h3-5H,1-2H3,(H,12,14)
Instrument: Q Exactive Plus
Instrument type: LC-ESI-QFT
Ms type: MS2
Ion mode: POSITIVE
Ionization: ESI
Fragmentation mode: HCD
Collision energy: 75 % (nominal)
Resolution: 15000
Column name: XBridge C18 3.5um, 2.1x50mm, Waters
Retention time: 8.860 min
Base peak: 249.0193
Precursor m/z: 249.0192
Precursor type: [M+H]+
Precursor intensity: 425494460.33
m/z	relative intensity	assigned
58.0287	14	C2H4NO+
60.0444	76	C2H6NO+
62.0601	21	C2H8NO+
72.9839	25	C3H2Cl+
82.9449	12	CHCl2+
90.0338	27	C6H4N+
96.9839	13	C5H2Cl+
98.9996	19	C5H4Cl+
123.995	84	C6H3ClN+
125.0027	495	C6H4ClN+
126.0107	32	C6H5ClN+
127.0182	16	C6H6ClN+
132.9606	999	C5H3Cl2+
133.9683	24	C5H4Cl2+
142.0054	22	C6H5ClNO+
153.0213	388	C7H6ClN2+
159.9715	396	C6H4Cl2N+
160.9793	508	C6H5Cl2N+
165.0214	28	C8H6ClN2+
181.0161	158	C8H6ClN2O+
182.0241	106	C8H7ClN2O+
216.9927	40	C8H7Cl2N2O+
