Mass spectrum: Phenylephrine 3-O-sulfate; LC-ESI-QFT; MS2; CE: 120%; R=17500; [M+H]+
Name: Phenylephrine 3-O-sulfate
Name: [3-[1-hydroxy-2-(methylamino)ethyl]phenyl] hydrogen sulfate
Formula: C9H13NO5S
Exact mass: 247.0514435
SMILES: CNCC(C1=CC(=CC=C1)OS(=O)(=O)O)O
InChI: InChI=1S/C9H13NO5S/c1-10-6-9(11)7-3-2-4-8(5-7)15-16(12,13)14/h2-5,9-11H,6H2,1H3,(H,12,13,14)
Instrument: Exploris 240 Orbitrap Thermo Scientific
Instrument type: LC-ESI-QFT
Ms type: MS2
Ion mode: POSITIVE
Ionization: ESI
Fragmentation mode: HCD
Collision energy: 120 % (nominal)
Resolution: 17500
Column name: XBridge C18 3.5um, 2.1x50mm, Waters
Retention time: 1.038 min
Base peak: 144.9877
Precursor m/z: 248.0587
Precursor type: [M+H]+
m/z	relative intensity	assigned
53.0387	67	C4H5+
56.0495	91	C3H6N+
57.0574	70	C3H7N+
65.0386	288	C5H5+
77.0386	115	C6H5+
79.0543	239	C6H7+
80.0495	40	C5H6N+
80.062	34	C6H8+
81.0699	139	C6H9+
90.0466	60	C7H6+
91.0542	999	C7H7+
92.0494	39	C6H6N+
94.0414	170	C6H6O+
94.0652	24	C6H8N+
95.0493	72	C6H7O+
103.0545	54	C8H7+
105.0449	87	H11NO3S+
106.0648	121	C7H8N+
107.0491	701	C7H7O+
108.0573	119	C7H8O+
109.0648	138	C7H9O+
117.0575	78	C8H7N+
118.0651	126	C8H8N+
120.0446	127	C7H6NO+
120.0807	26	C8H10N+
134.06	420	C8H8NO+
135.0677	264	C8H9NO+
