Mass spectrum: Telmisartan O-acyl-glucuronide; LC-ESI-QFT; MS2; CE: 120%; R=17500; [M+H]+
Name: Telmisartan O-acyl-glucuronide
Name: 3,4,5-trihydroxy-6-[2-[4-[[4-methyl-6-(1-methylbenzimidazol-2-yl)-2-propylbenzimidazol-1-yl]methyl]phenyl]benzoyl]oxyoxane-2-carboxylic acid
Formula: C39H38N4O8
Exact mass: 690.2689642
SMILES: CCCC1=NC2=C(N1CC3=CC=C(C=C3)C4=CC=CC=C4C(=O)OC5C(C(C(C(O5)C(=O)O)O)O)O)C=C(C=C2C)C6=NC7=CC=CC=C7N6C
InChI: InChI=1S/C39H38N4O8/c1-4-9-30-41-31-21(2)18-24(36-40-27-12-7-8-13-28(27)42(36)3)19-29(31)43(30)20-22-14-16-23(17-15-22)25-10-5-6-11-26(25)38(49)51-39-34(46)32(44)33(45)35(50-39)37(47)48/h5-8,10-19,32-35,39,44-46H,4,9,20H2,1-3H3,(H,47,48)
Instrument: Exploris 240 Orbitrap Thermo Scientific
Instrument type: LC-ESI-QFT
Ms type: MS2
Ion mode: POSITIVE
Ionization: ESI
Fragmentation mode: HCD
Collision energy: 120 % (nominal)
Resolution: 17500
Column name: XBridge C18 3.5um, 2.1x50mm, Waters
Retention time: 6.944 min
Base peak: 346.1415
Precursor m/z: 691.2762
Precursor type: [M+H]+
m/z	relative intensity	assigned
77.0386	306	C6H5+
78.0465	49	C6H6+
79.0542	227	C6H7+
89.0387	38	C7H5+
90.0466	22	C7H6+
91.0542	36	C7H7+
92.0495	488	C6H6N+
95.0493	105	C6H7O+
103.0421	38	C7H5N+
103.0541	27	C8H7+
104.0494	91	C7H6N+
105.0448	74	C6H5N2+
106.0651	210	C7H8N+
115.0541	178	C9H7+
116.0494	110	C8H6N+
117.0572	37	C8H7N+
119.0606	36	C7H7N2+
127.0543	41	C10H7+
128.062	86	C10H8+
129.0699	38	C10H9+
130.0651	31	C9H8N+
131.0603	139	C8H7N2+
132.0684	34	C8H8N2+
133.0284	13	C8H5O2+
133.0759	79	C8H9N2+
139.0539	74	C11H7+
141.07	31	C11H9+
142.0527	31	C9H6N2+
143.0606	202	C9H7N2+
144.0685	52	C9H8N2+
145.0764	59	C9H9N2+
152.062	284	C12H8+
153.07	118	C12H9+
155.0608	60	C10H7N2+
155.0859	30	C12H11+
156.0682	44	C10H8N2+
157.0762	104	C10H9N2+
158.0844	21	C10H10N2+
163.0541	27	C13H7+
164.0621	128	C13H8+
165.0699	812	C13H9+
192.0682	79	C13H8N2+
193.0782	186	CH13N4O7+
206.0845	240	C14H10N2+
207.0928	165	C2H15N4O7+
219.0767	114	C11H11N2O3+
220.0866	319	C14H10N3+
230.072	32	C15H8N3+
231.0789	146	C15H9N3+
232.0869	212	C15H10N3+
233.095	180	C15H11N3+
234.1026	309	C15H12N3+
244.0866	58	C16H10N3+
245.0815	116	C14H13O4+
246.0892	212	C14H14O4+
247.0971	59	C15H11N4+
259.098	508	C16H11N4+
260.1056	626	C16H12N4+
261.1136	999	C16H13N4+
262.1208	67	C16H14N4+
271.0992	50	C19H13NO+
272.1056	102	C17H12N4+
273.1134	469	C17H13N4+
274.1215	191	C17H14N4+
275.1292	408	C17H15N4+
276.1366	83	C17H16N4+
285.1153	25	C20H15NO+
287.129	185	C18H15N4+
288.1364	28	C18H16N4+
289.1447	66	C18H17N4+
