Mass spectrum: Eriodictyol; LC-ESI-QFT; MS2; CE: 45%; R=17500; [M+H]+
Name: Eriodictyol
Name: (+/-)-Eriodictyol
Name: 2-(3,4-dihydroxyphenyl)-5,7-dihydroxy-2,3-dihydrochromen-4-one
Formula: C15H12O6
Exact mass: 288.0633881
SMILES: C1C(OC2=CC(=CC(=C2C1=O)O)O)C3=CC(=C(C=C3)O)O
InChI: InChI=1S/C15H12O6/c16-8-4-11(19)15-12(20)6-13(21-14(15)5-8)7-1-2-9(17)10(18)3-7/h1-5,13,16-19H,6H2
Instrument: Exploris 240 Orbitrap Thermo Scientific
Instrument type: LC-ESI-QFT
Ms type: MS2
Ion mode: POSITIVE
Ionization: ESI
Fragmentation mode: HCD
Collision energy: 45 % (nominal)
Resolution: 17500
Column name: XBridge C18 3.5um, 2.1x50mm, Waters
Retention time: 5.359 min
Base peak: 289.0705
Precursor m/z: 289.0707
Precursor type: [M+H]+
m/z	relative intensity	assigned
111.0078	43	C5H3O3+
111.0444	7	C6H7O2+
117.0333	15	C8H5O+
123.0439	35	C7H7O2+
135.044	45	C8H7O2+
139.0387	20	C7H7O3+
145.0282	99	C9H5O2+
151.0386	14	C8H7O3+
153.0182	999	C7H5O4+
159.0443	10	C10H7O2+
161.0597	7	C10H9O2+
163.039	892	C9H7O3+
171.0282	5	C7H7O5+
179.0342	62	C9H7O4+
187.0393	31	C11H7O3+
205.0488	19	C11H9O4+
247.0601	8	C13H11O5+
271.0606	23	C15H11O5+
289.0708	159	C15H13O6+
