Mass spectrum: Hesperitin; LC-ESI-QFT; MS2; CE: 180%; R=17500; [M+H]+
Name: Hesperitin
Name: 5,7-dihydroxy-2-(3-hydroxy-4-methoxyphenyl)-3,4-dihydro-2H-1-benzopyran-4-one
Name: 5,7-dihydroxy-2-(3-hydroxy-4-methoxyphenyl)-2,3-dihydrochromen-4-one
Formula: C16H14O6
Exact mass: 302.0790382
SMILES: COC1=C(C=C(C=C1)C2CC(=O)C3=C(C=C(C=C3O2)O)O)O
InChI: InChI=1S/C16H14O6/c1-21-13-3-2-8(4-10(13)18)14-7-12(20)16-11(19)5-9(17)6-15(16)22-14/h2-6,14,17-19H,7H2,1H3
Instrument: Exploris 240 Orbitrap Thermo Scientific
Instrument type: LC-ESI-QFT
Ms type: MS2
Ion mode: POSITIVE
Ionization: ESI
Fragmentation mode: HCD
Collision energy: 180 % (nominal)
Resolution: 17500
Column name: XBridge C18 3.5um, 2.1x50mm, Waters
Retention time: 6.321 min
Base peak: 303.086
Precursor m/z: 303.0863
Precursor type: [M+H]+
m/z	relative intensity	assigned
50.0152	162	C4H2+
51.0229	356	C4H3+
52.0307	180	C4H4+
53.0021	51	C3HO+
53.0386	85	C4H5+
55.0179	135	C3H3O+
62.015	87	C5H2+
63.0229	999	C5H3+
65.0385	260	C5H5+
66.0465	60	C5H6+
68.9971	803	C3HO2+
69.0334	87	C4H5O+
76.0309	24	C6H4+
77.0385	229	C6H5+
78.0464	296	C6H6+
79.0179	65	C5H3O+
79.0541	21	C6H7+
81.0333	25	C5H5O+
89.0386	528	C7H5+
95.0491	95	C6H7O+
105.0336	68	C7H5O+
115.0544	62	C9H7+
