Mass spectrum: Sulfentrazone; LC-ESI-QFT; MS2; CE: 180%; R=15000; [M+H]+
Name: Sulfentrazone
Name: N-[2,4-dichloro-5-[4-(difluoromethyl)-3-methyl-5-oxo-1,2,4-triazol-1-yl]phenyl]methanesulfonamide
Formula: C11H10Cl2F2N4O3S
Exact mass: 385.981873
SMILES: CC1=NN(C(=O)N1C(F)F)C1=CC(NS(C)(=O)=O)=C(Cl)C=C1Cl
InChI: InChI=1S/C11H10Cl2F2N4O3S/c1-5-16-19(11(20)18(5)10(14)15)9-4-8(17-23(2,21)22)6(12)3-7(9)13/h3-4,10,17H,1-2H3
Instrument: Q Exactive Plus
Instrument type: LC-ESI-QFT
Ms type: MS2
Ion mode: POSITIVE
Ionization: ESI
Fragmentation mode: HCD
Collision energy: 180 % (nominal)
Resolution: 15000
Column name: XBridge C18 3.5um, 2.1x50mm, Waters
Retention time: 6.517 min
Base peak: 386.9893
Precursor m/z: 386.9891
Precursor type: [M+H]+
Precursor intensity: 79056822.8
m/z	relative intensity	assigned
50.0151	50	C4H2+
51.004	12	CHF2+
52.0182	62	C3H2N+
60.984	18	C2H2Cl+
61.9792	277	CHClN+
62.9631	13	CClO+
64.0181	32	C4H2N+
72.9839	46	C3H2Cl+
75.0103	999	C5HN+
76.0181	482	C5H2N+
77.0134	11	C4HN2+
82.945	27	CHCl2+
83.9761	92	C4HCl+
84.9839	103	C4H2Cl+
85.9792	43	C3HClN+
97.9792	52	C4HClN+
100.0055	63	C6N2+
101.0134	49	C6HN2+
106.9448	15	C3HCl2+
108.9715	20	C5ClN+
109.9792	208	C5HClN+
111.9948	40	C5H3ClN+
