Mass spectrum: Nifedipine; LC-ESI-QFT; MS2; CE: 30%; R=15000; [M+H]+
Name: Nifedipine
Name: dimethyl 2,6-dimethyl-4-(2-nitrophenyl)-1,4-dihydropyridine-3,5-dicarboxylate
Formula: C17H18N2O6
Exact mass: 346.1164863
SMILES: CC1=C(C(C(=C(N1)C)C(=O)OC)C2=CC=CC=C2[N+](=O)[O-])C(=O)OC
InChI: InChI=1S/C17H18N2O6/c1-9-13(16(20)24-3)15(14(10(2)18-9)17(21)25-4)11-7-5-6-8-12(11)19(22)23/h5-8,15,18H,1-4H3
Instrument: Exploris 240 Thermo Scientific
Instrument type: LC-ESI-QFT
Ms type: MS2
Ion mode: POSITIVE
Ionization: ESI
Fragmentation mode: HCD
Collision energy: 30 % (nominal)
Resolution: 15000
Column name: XBridge C18 3.5um, 2.1x50mm, Waters
Retention time: 7.583 min
Base peak: 315.0977
Precursor m/z: 347.1238
Precursor type: [M+H]+
m/z	relative intensity	assigned
122.0234	55	C6H4NO2+
142.0652	18	C10H8N+
154.0651	60	C11H8N+
168.0809	65	C12H10N+
170.0602	29	C11H8NO+
178.0654	30	C13H8N+
182.084	53	C12H10N2+
183.0914	72	C12H11N2+
195.0916	306	C13H11N2+
196.099	56	C13H12N2+
197.1071	68	C13H13N2+
209.0707	109	C13H9N2O+
211.0865	311	C13H11N2O+
212.0943	149	C13H12N2O+
214.0499	111	C12H8NO3+
218.081	14	C12H12NO3+
221.0709	16	C14H9N2O+
222.0542	25	C14H8NO2+
222.079	61	C14H10N2O+
227.0822	17	C13H11N2O2+
228.0896	15	C13H12N2O2+
232.0607	21	C12H10NO4+
239.0816	413	C14H11N2O2+
241.097	184	C14H13N2O2+
246.0762	82	C13H12NO4+
253.0972	312	C15H13N2O2+
254.1052	999	C15H14N2O2+
255.0765	55	C14H11N2O3+
256.0845	34	C14H12N2O3+
271.1078	143	C15H15N2O3+
284.0924	19	C16H14NO4+
315.0981	68	C16H15N2O5+
