Mass spectrum: Bromacil; LC-ESI-QFT; MS2; CE: 150%; R=15000; [M+H]+
Name: Bromacil
Name: 5-bromo-3-butan-2-yl-6-methyl-1H-pyrimidine-2,4-dione
Formula: C9H13BrN2O2
Exact mass: 260.0160398
SMILES: CCC(C)N1C(=O)NC(C)=C(Br)C1=O
InChI: InChI=1S/C9H13BrN2O2/c1-4-5(2)12-8(13)7(10)6(3)11-9(12)14/h5H,4H2,1-3H3,(H,11,14)
Instrument: Q Exactive Plus
Instrument type: LC-ESI-QFT
Ms type: MS2
Ion mode: POSITIVE
Ionization: ESI
Fragmentation mode: HCD
Collision energy: 150 % (nominal)
Resolution: 15000
Column name: XBridge C18 3.5um, 2.1x50mm, Waters
Retention time: 6.138 min
Base peak: 261.0235
Precursor m/z: 261.0233
Precursor type: [M+H]+
Precursor intensity: 277792870.2
m/z	relative intensity	assigned
52.0182	716	C3H2N+
54.0338	999	C3H4N+
55.0179	17	C3H3O+
55.0417	129	C3H5N+
64.0181	35	C4H2N+
67.0178	29	C4H3O+
68.0131	183	C3H2NO+
69.0083	154	C2HN2O+
69.0447	41	C3H5N2+
69.9924	146	C2NO2+
92.9335	205	CH2Br+
104.9334	540	C2H2Br+
105.9287	165	CHBrN+
106.9127	59	CBrO+
106.9492	92	C2H4Br+
116.9335	54	C3H2Br+
131.9444	341	C3H3BrN+
