Mass spectrum: tau-Fluvalinate; LC-ESI-QFT; MS2; CE: 150%; R=15000; [M+H]+
Name: tau-Fluvalinate
Name: Fluvalinate
Name: [cyano-(3-phenoxyphenyl)methyl] 2-[2-chloro-4-(trifluoromethyl)anilino]-3-methylbutanoate
Formula: C26H22ClF3N2O3
Exact mass: 502.1271049
SMILES: CC(C)C(C(=O)OC(C#N)C1=CC(=CC=C1)OC2=CC=CC=C2)NC3=C(C=C(C=C3)C(F)(F)F)Cl
InChI: InChI=1S/C26H22ClF3N2O3/c1-16(2)24(32-22-12-11-18(14-21(22)27)26(28,29)30)25(33)35-23(15-31)17-7-6-10-20(13-17)34-19-8-4-3-5-9-19/h3-14,16,23-24,32H,1-2H3
Instrument: Q Exactive Plus
Instrument type: LC-ESI-QFT
Ms type: MS2
Ion mode: POSITIVE
Ionization: ESI
Fragmentation mode: HCD
Collision energy: 150 % (nominal)
Resolution: 15000
Column name: XBridge C18 3.5um, 2.1x50mm, Waters
Retention time: 16.348 min
Base peak: 503.1345
Precursor m/z: 503.1344
Precursor type: [M+H]+
Precursor intensity: 56663198.69
m/z	relative intensity	assigned
50.0151	230	C4H2+
51.0229	322	C4H3+
53.0022	35	C3HO+
53.0385	125	C4H5+
61.0072	45	C5H+
62.0151	115	C5H2+
63.0229	150	C5H3+
64.018	11	C4H2N+
65.0022	19	C4HO+
65.0385	54	C5H5+
68.9946	10	CF3+
74.015	156	C6H2+
75.0229	228	C6H3+
76.0306	61	C6H4+
77.0385	116	C6H5+
78.0464	83	C6H6+
81.0334	16	C5H5O+
87.0229	76	C7H3+
88.0181	20	C6H2N+
88.0306	63	C7H4+
89.0385	106	C7H5+
90.0463	16	C7H6+
91.0542	30	C7H7+
94.041	10	C6H6O+
95.0491	403	C6H7O+
98.015	48	C8H2+
99.0228	53	C8H3+
100.0306	17	C8H4+
101.0385	21	C8H5+
102.0464	162	C8H6+
103.0541	28	C8H7+
105.0448	106	C6H5N2+
111.0229	13	C9H3+
113.0385	133	C9H5+
114.0338	47	C8H4N+
115.0542	145	C9H7+
119.0492	42	C8H7O+
125.0385	46	C10H5+
126.0463	443	C10H6+
127.0542	124	C10H7+
128.0621	32	C10H8+
132.0568	16	C9H8O+
137.0385	51	C11H5+
139.0541	218	C11H7+
140.0493	67	C10H6N+
145.0647	81	C10H9O+
150.0464	392	C12H6+
151.0541	56	C12H7+
152.0619	999	C12H8+
153.0571	13	C11H7N+
155.0486	12	C11H7O+
155.06	75	C10H7N2+
164.0492	58	C12H6N+
169.0646	574	C12H9O+
179.0607	94	C12H7N2+
