Mass spectrum: Lacidipine; LC-ESI-QFT; MS2; CE: 30%; R=15000; [M-H]-
Name: Lacidipine
Name: 2,6-Dimethyl-4-[2-[3-[(2-methylpropan-2-yl)oxy]-3-oxoprop-1-enyl]phenyl]-1,4-dihydropyridine-3,5-dicarboxylic acid diethyl ester
Name: diethyl 2,6-dimethyl-4-[2-[3-[(2-methylpropan-2-yl)oxy]-3-oxoprop-1-enyl]phenyl]-1,4-dihydropyridine-3,5-dicarboxylate
Formula: C26H33NO6
Exact mass: 455.2307878
SMILES: CCOC(=O)C1=C(NC(=C(C1C2=CC=CC=C2C=CC(=O)OC(C)(C)C)C(=O)OCC)C)C
InChI: InChI=1S/C26H33NO6/c1-8-31-24(29)21-16(3)27-17(4)22(25(30)32-9-2)23(21)19-13-11-10-12-18(19)14-15-20(28)33-26(5,6)7/h10-15,23,27H,8-9H2,1-7H3
Instrument: Exploris 240 Thermo Scientific
Instrument type: LC-ESI-QFT
Ms type: MS2
Ion mode: NEGATIVE
Ionization: ESI
Fragmentation mode: HCD
Collision energy: 30 % (nominal)
Resolution: 15000
Column name: XBridge C18 3.5um, 2.1x50mm, Waters
Retention time: 13.159 min
Base peak: 454.2235
Precursor m/z: 454.2235
Precursor type: [M-H]-
m/z	relative intensity	assigned
73.0658	78	C4H9O-
101.0396	192	C8H5-
113.0244	310	C5H5O3-
117.0708	68	C9H9-
147.0451	999	C9H7O2-
187.0975	183	C9H15O4-
234.0921	26	C16H12NO-
249.0794	19	C16H11NO2-
250.1085	151	C13H16NO4-
261.0799	68	C17H11NO2-
262.0873	134	C17H12NO2-
266.1182	70	C17H16NO2-
278.1186	269	C18H16NO2-
280.1334	28	C18H18NO2-
288.0668	50	C18H10NO3-
306.1137	290	C19H16NO3-
308.129	253	C19H18NO3-
334.1084	390	C20H16NO4-
352.1189	285	C20H18NO5-
380.1501	695	C22H22NO5-
408.1818	678	C24H26NO5-
