Mass spectrum: 3-Hydroxycotinine; LC-ESI-QFT; MS2; CE: 15%; R=17500; [M+H]+
Name: 3-Hydroxycotinine
Name: 2-Pyrrolidinone, 3-hydroxy-1-methyl-5-(3-pyridinyl)-
Name: 3-hydroxy-1-methyl-5-pyridin-3-ylpyrrolidin-2-one
Formula: C10H12N2O2
Exact mass: 192.0898776
SMILES: CN1C(CC(C1=O)O)C2=CN=CC=C2
InChI: InChI=1S/C10H12N2O2/c1-12-8(5-9(13)10(12)14)7-3-2-4-11-6-7/h2-4,6,8-9,13H,5H2,1H3
Instrument: Exploris 240 Orbitrap Thermo Scientific
Instrument type: LC-ESI-QFT
Ms type: MS2
Ion mode: POSITIVE
Ionization: ESI
Fragmentation mode: HCD
Collision energy: 15 % (nominal)
Resolution: 17500
Column name: XBridge C18 3.5um, 2.1x50mm, Waters
Retention time: 0.962 min
Base peak: 193.0971
Precursor m/z: 193.0972
Precursor type: [M+H]+
m/z	relative intensity	assigned
193.097	999	C10H13N2O2+
