Mass spectrum: Fluralaner; LC-ESI-QFT; MS2; CE: 30%; R=17500; [M-H]-
Name: Fluralaner
Name: 4-[5-(3,5-dichlorophenyl)-5-(trifluoromethyl)-4H-1,2-oxazol-3-yl]-2-methyl-N-[2-oxo-2-(2,2,2-trifluoroethylamino)ethyl]benzamide
Formula: C22H17Cl2F6N3O3
Exact mass: 555.055116084
SMILES: CC1=C(C=CC(=C1)C2=NOC(C2)(C3=CC(=CC(=C3)Cl)Cl)C(F)(F)F)C(=O)NCC(=O)NCC(F)(F)F
InChI: InChI=1S/C22H17Cl2F6N3O3/c1-11-4-12(2-3-16(11)19(35)31-9-18(34)32-10-21(25,26)27)17-8-20(36-33-17,22(28,29)30)13-5-14(23)7-15(24)6-13/h2-7H,8-10H2,1H3,(H,31,35)(H,32,34)
Instrument: Exploris 240 Orbitrap Thermo Scientific
Instrument type: LC-ESI-QFT
Ms type: MS2
Ion mode: NEGATIVE
Ionization: ESI
Fragmentation mode: HCD
Collision energy: 30 % (nominal)
Resolution: 17500
Column name: XBridge C18 3.5um, 2.1x50mm, Waters
Retention time: 13.362 min
Base peak: 311.1686
Precursor m/z: 554.0478
Precursor type: [M-H]-
m/z	relative intensity	assigned
65.9986	38	C3NO-
68.9957	70	CF3-
86.0047	91	C3HFNO-
95.0252	100	C4H3N2O-
113.0156	295	C4H2FN2O-
115.0313	130	C4H4FN2O-
161.017	22	C5H3F2N2O2-
184.957	8	C3ClF2N2O3-
186.9722	27	Cl2F5H6O-
211.0514	20	C12H7N2O2-
213.0667	72	C4H10F5N2O2-
219.9911	16	C9H4ClF3O-
236.0472	31	C7H11ClF4NO-
245.9684	38	C8ClF3N3O-
254.057	261	C7H15Cl2F3N2-
274.0631	95	C5H10F6N3O3-
340.9867	14	C12H5ClF5NO3-
372.0167	68	C15H7ClF4N3O2-
425.0106	51	C22H6ClF4N2O-
431.0185	47	C18H12Cl2F3N2O3-
455.0178	100	C20H12Cl2F3N2O3-
471.0296	93	C21H13Cl2F4N2O2-
491.0347	11	C21H14Cl2F5N2O2-
494.0291	999	C22H13Cl2F3N3O3-
514.0357	320	C22H14Cl2F4N3O3-
534.0416	565	C22H15Cl2F5N3O3-
554.0482	65	C22H16Cl2F6N3O3-
