Mass spectrum: Prosulfuron; LC-ESI-QFT; MS2; CE: 180%; R=15000; [M+H]+
Name: Prosulfuron
Name: 1-(4-methoxy-6-methyl-1,3,5-triazin-2-yl)-3-[2-(3,3,3-trifluoropropyl)phenyl]sulfonylurea
Formula: C15H16F3N5O4S
Exact mass: 419.0875097
SMILES: COC1=NC(C)=NC(NC(=O)NS(=O)(=O)C2=C(CCC(F)(F)F)C=CC=C2)=N1
InChI: InChI=1S/C15H16F3N5O4S/c1-9-19-12(22-14(20-9)27-2)21-13(24)23-28(25,26)11-6-4-3-5-10(11)7-8-15(16,17)18/h3-6H,7-8H2,1-2H3,(H2,19,20,21,22,23,24)
Instrument: Q Exactive Plus
Instrument type: LC-ESI-QFT
Ms type: MS2
Ion mode: POSITIVE
Ionization: ESI
Fragmentation mode: HCD
Collision energy: 180 % (nominal)
Resolution: 15000
Column name: XBridge C18 3.5um, 2.1x50mm, Waters
Retention time: 9.077 min
Base peak: 420.0952
Precursor m/z: 420.0948
Precursor type: [M+H]+
Precursor intensity: 358441509.99
m/z	relative intensity	assigned
51.023	58	C4H3+
56.0495	179	C3H6N+
57.0135	999	C3H2F+
57.0447	70	C2H5N2+
58.0288	96	C2H4NO+
59.0292	123	C3H4F+
62.0152	100	C5H2+
63.0229	314	C5H3+
68.0243	89	C2H2N3+
69.0083	614	C2HN2O+
81.0135	65	C5H2F+
83.0291	903	C5H4F+
89.0387	85	C7H5+
109.0449	90	C7H6F+
