Mass spectrum: Licarbazepine; LC-ESI-QFT; MS2; CE: 120%; R=17500; [M+H]+
Name: Licarbazepine
Name: 5-hydroxy-5,6-dihydrobenzo[b][1]benzazepine-11-carboxamide
Formula: C15H14N2O2
Exact mass: 254.1055277
SMILES: C1C(C2=CC=CC=C2N(C3=CC=CC=C31)C(=O)N)O
InChI: InChI=1S/C15H14N2O2/c16-15(19)17-12-7-3-1-5-10(12)9-14(18)11-6-2-4-8-13(11)17/h1-8,14,18H,9H2,(H2,16,19)
Instrument: Exploris 240 Orbitrap Thermo Scientific
Instrument type: LC-ESI-QFT
Ms type: MS2
Ion mode: POSITIVE
Ionization: ESI
Fragmentation mode: HCD
Collision energy: 120 % (nominal)
Resolution: 17500
Column name: XBridge C18 3.5um, 2.1x50mm, Waters
Retention time: 5.085 min
Base peak: 237.1021
Precursor m/z: 255.1128
Precursor type: [M+H]+
m/z	relative intensity	assigned
65.0387	52	C5H5+
89.0384	103	C7H5+
90.0464	83	C7H6+
91.0541	95	C7H7+
116.0498	47	C8H6N+
117.0574	86	C8H7N+
128.0496	15	C9H6N+
128.0618	24	C10H8+
139.0543	26	C11H7+
151.0546	71	C12H7+
152.062	278	C12H8+
153.0576	51	C11H7N+
164.0627	59	C13H8+
165.0699	605	C13H9+
167.0728	341	C12H9N+
169.0653	34	C12H9O+
176.062	56	C14H8+
178.0648	358	C13H8N+
179.0732	606	C13H9N+
190.0652	158	C14H8N+
191.073	544	C14H9N+
192.0809	956	C14H10N+
193.0887	999	C14H11N+
194.0965	112	C14H12N+
