Mass spectrum: 5-Fluorocytosine; LC-ESI-QFT; MS2; CE: 90%; R=17500; [M+H]+
Name: 5-Fluorocytosine
Name: Flucytosine
Name: 6-amino-5-fluoro-1H-pyrimidin-2-one
Formula: C4H4FN3O
Exact mass: 129.03384
SMILES: C1=NC(=O)NC(=C1F)N
InChI: InChI=1S/C4H4FN3O/c5-2-1-7-4(9)8-3(2)6/h1H,(H3,6,7,8,9)
Instrument: Exploris 240 Orbitrap Thermo Scientific
Instrument type: LC-ESI-QFT
Ms type: MS2
Ion mode: POSITIVE
Ionization: ESI
Fragmentation mode: HCD
Collision energy: 90 % (nominal)
Resolution: 17500
Column name: XBridge C18 3.5um, 2.1x50mm, Waters
Retention time: 0.909 min
Base peak: 130.041
Precursor m/z: 130.0411
Precursor type: [M+H]+
m/z	relative intensity	assigned
58.0087	74	C2HFN+
60.0243	44	C2H3FN+
62.04	5	C2H5FN+
67.0292	20	C3H3N2+
69.0084	4	C2HN2O+
85.0196	175	C3H2FN2+
87.0353	251	C3H4FN2+
112.0304	181	C4H3FN3+
113.0145	999	C4H2FN2O+
130.041	711	C4H5FN3O+
