Mass spectrum: Sacubitrilat; LC-ESI-QFT; MS2; CE: 75%; R=17500; [M-H]-
Name: Sacubitrilat
Name: (2R,4S)-4-(3-carboxypropanoylamino)-2-methyl-5-(4-phenylphenyl)pentanoic Acid
Name: 4-(3-carboxypropanoylamino)-2-methyl-5-(4-phenylphenyl)pentanoic acid
Name: LBQ657
Formula: C22H25NO5
Exact mass: 383.1732729
SMILES: CC(CC(CC1=CC=C(C=C1)C2=CC=CC=C2)NC(=O)CCC(=O)O)C(=O)O
InChI: InChI=1S/C22H25NO5/c1-15(22(27)28)13-19(23-20(24)11-12-21(25)26)14-16-7-9-18(10-8-16)17-5-3-2-4-6-17/h2-10,15,19H,11-14H2,1H3,(H,23,24)(H,25,26)(H,27,28)
Instrument: Exploris 240 Orbitrap Thermo Scientific
Instrument type: LC-ESI-QFT
Ms type: MS2
Ion mode: NEGATIVE
Ionization: ESI
Fragmentation mode: HCD
Collision energy: 75 % (nominal)
Resolution: 17500
Column name: XBridge C18 3.5um, 2.1x50mm, Waters
Retention time: 9.234 min
Base peak: 382.1658
Precursor m/z: 382.166
Precursor type: [M-H]-
m/z	relative intensity	assigned
55.0189	34	C3H3O-
70.0299	34	C3H4NO-
72.0454	98	C3H6NO-
98.0247	999	C4H4NO2-
99.0088	76	C4H3O3-
114.0556	12	C5H8NO2-
116.0353	16	C4H6NO3-
167.0866	333	C13H11-
