Mass spectrum: Benzamide; LC-ESI-QFT; MS2; CE: 70%; R=15000; [M+H]+
Name: Benzamide
Formula: C7H7NO
Exact mass: 121.0527638
SMILES: C1=CC=C(C=C1)C(=O)N
InChI: InChI=1S/C7H7NO/c8-7(9)6-4-2-1-3-5-6/h1-5H,(H2,8,9)
Instrument: Exploris 240 Thermo Scientific
Instrument type: LC-ESI-QFT
Ms type: MS2
Ion mode: POSITIVE
Ionization: ESI
Fragmentation mode: HCD
Collision energy: 70 % (nominal)
Resolution: 15000
Column name: XBridge C18 3.5um, 2.1x50mm, Waters
Retention time: 2.801 min
Base peak: 122.0598
Precursor m/z: 122.06
Precursor type: [M+H]+
m/z	relative intensity	assigned
44.013	999	CH2NO+
51.0229	475	C4H3+
53.0385	105	C4H5+
59.049	29	C3H7O+
77.0385	519	C6H5+
79.0542	119	C6H7+
94.0413	21	C6H6O+
95.0491	843	C6H7O+
