Mass spectrum: Ethylene glycol diglycidyl ether; LC-ESI-QFT; MS2; CE: 45%; R=15000; [M+H]+
Name: Ethylene glycol diglycidyl ether
Name: 2-[2-(oxiran-2-ylmethoxy)ethoxymethyl]oxirane
Formula: C8H14O4
Exact mass: 174.0892089
SMILES: C(COCC1CO1)OCC1CO1
InChI: InChI=1S/C8H14O4/c1(9-3-7-5-11-7)2-10-4-8-6-12-8/h7-8H,1-6H2
Instrument: Q Exactive Plus
Instrument type: LC-ESI-QFT
Ms type: MS2
Ion mode: POSITIVE
Ionization: ESI
Fragmentation mode: HCD
Collision energy: 45 % (nominal)
Resolution: 15000
Column name: XBridge C18 3.5um, 2.1x50mm, Waters
Retention time: 2.678 min
Base peak: 192.1231
Precursor m/z: 175.0965
Precursor type: [M+H]+
Precursor intensity: 17081594.97
m/z	relative intensity	assigned
55.0179	19	C3H3O+
55.0542	39	C4H7+
57.0335	999	C3H5O+
59.0492	239	C3H7O+
71.0491	70	C4H7O+
73.0284	70	C3H5O2+
73.0647	28	C4H9O+
75.0441	106	C3H7O2+
83.0491	39	C5H7O+
87.0441	61	C4H7O2+
99.0441	166	C5H7O2+
101.0598	161	C5H9O2+
175.0967	62	C8H15O4+
