Mass spectrum: Pyridate; LC-ESI-QFT; MS2; CE: 75%; R=15000; [M+H]+
Name: Pyridate
Name: (6-chloro-3-phenylpyridazin-4-yl) octylsulfanylformate
Formula: C19H23ClN2O2S
Exact mass: 378.1168767
SMILES: CCCCCCCCSC(=O)OC1=CC(Cl)=NN=C1C1=CC=CC=C1
InChI: InChI=1S/C19H23ClN2O2S/c1-2-3-4-5-6-10-13-25-19(23)24-16-14-17(20)21-22-18(16)15-11-8-7-9-12-15/h7-9,11-12,14H,2-6,10,13H2,1H3
Instrument: Q Exactive Plus
Instrument type: LC-ESI-QFT
Ms type: MS2
Ion mode: POSITIVE
Ionization: ESI
Fragmentation mode: HCD
Collision energy: 75 % (nominal)
Resolution: 15000
Column name: XBridge C18 3.5um, 2.1x50mm, Waters
Retention time: 16.445 min
Base peak: 379.1244
Precursor m/z: 379.1242
Precursor type: [M+H]+
Precursor intensity: 282888817.6
m/z	relative intensity	assigned
50.0152	11	C4H2+
51.0229	31	C4H3+
53.0023	10	C3HO+
53.0386	203	C4H5+
57.0699	272	C4H9+
61.9792	80	CHClN+
68.0131	924	C3H2NO+
69.0699	59	C5H9+
71.0855	55	C5H11+
77.0385	74	C6H5+
81.0335	11	C5H5O+
95.0492	673	C6H7O+
103.9897	156	C3H3ClNO+
104.0495	999	C7H6N+
105.0447	160	C6H5N2+
115.0541	29	C9H7+
116.0495	23	C8H6N+
126.0465	140	C10H6+
138.0106	51	C7H5ClN+
143.0605	28	C9H7N2+
179.037	114	C9H8ClN2+
207.032	685	C10H8ClN2O+
