Mass spectrum: 2-Benzyl-2-(dimethylamino)-1-[4-(morpholin-4-yl)phenyl]butan-1-one; LC-ESI-QFT; MS2; CE: 15%; R=15000; [M+H]+
Name: 2-Benzyl-2-(dimethylamino)-1-[4-(morpholin-4-yl)phenyl]butan-1-one
Name: 2-Benzyl-2-dimethylamino-1-(4-morpholinophenyl)-1-butanone
Name: 2-benzyl-2-(dimethylamino)-1-(4-morpholin-4-ylphenyl)butan-1-one
Formula: C23H30N2O2
Exact mass: 366.2307282
SMILES: CCC(CC1=CC=CC=C1)(N(C)C)C(=O)C1=CC=C(C=C1)N1CCOCC1
InChI: InChI=1S/C23H30N2O2/c1-4-23(24(2)3,18-19-8-6-5-7-9-19)22(26)20-10-12-21(13-11-20)25-14-16-27-17-15-25/h5-13H,4,14-18H2,1-3H3
Instrument: Exploris 240 Thermo Scientific
Instrument type: LC-ESI-QFT
Ms type: MS2
Ion mode: POSITIVE
Ionization: ESI
Fragmentation mode: HCD
Collision energy: 15 % (nominal)
Resolution: 15000
Column name: XBridge C18 3.5um, 2.1x50mm, Waters
Retention time: 5.169 min
Base peak: 367.2376
Precursor m/z: 367.238
Precursor type: [M+H]+
m/z	relative intensity	assigned
176.1432	89	C12H18N+
190.0861	24	C11H12NO2+
202.0777	52	C16H10+
294.1847	19	C20H24NO+
322.1799	25	C21H24NO2+
367.2377	999	C23H31N2O2+
