Mass spectrum: Diphenhydramine N-glucuronide; LC-ESI-QFT; MS2; CE: 120%; R=17500; [M+H]+
Name: Diphenhydramine N-glucuronide
Name: 6-[2-benzhydryloxyethyl(dimethyl)azaniumyl]-3,4,5-trihydroxyoxane-2-carboxylate
Formula: C23H29NO7
Exact mass: 431.1944023
SMILES: C[N+](C)(CCOC(C1=CC=CC=C1)C2=CC=CC=C2)C3C(C(C(C(O3)C(=O)[O-])O)O)O
InChI: InChI=1S/C23H29NO7/c1-24(2,22-19(27)17(25)18(26)21(31-22)23(28)29)13-14-30-20(15-9-5-3-6-10-15)16-11-7-4-8-12-16/h3-12,17-22,25-27H,13-14H2,1-2H3
Instrument: Exploris 240 Orbitrap Thermo Scientific
Instrument type: LC-ESI-QFT
Ms type: MS2
Ion mode: POSITIVE
Ionization: ESI
Fragmentation mode: HCD
Collision energy: 120 % (nominal)
Resolution: 17500
Column name: XBridge C18 3.5um, 2.1x50mm, Waters
Retention time: 5.862 min
Base peak: 432.2014
Precursor m/z: 432.2017
Precursor type: [M+H]+
m/z	relative intensity	assigned
55.0178	37	C3H3O+
57.0335	30	C3H5O+
65.0385	6	C5H5+
71.0128	98	C3H3O2+
73.0284	59	C3H5O2+
85.0283	27	C4H5O2+
113.0236	6	C5H5O3+
115.0543	48	C9H7+
128.0621	93	C10H8+
141.07	80	C11H9+
151.054	35	C12H7+
152.0621	852	C12H8+
164.0621	15	C13H8+
165.0699	999	C13H9+
166.0777	174	C13H10+
167.0854	51	C13H11+
169.0643	15	C12H9O+
