Mass spectrum: Nintedanib; LC-ESI-QFT; MS2; CE: 60%; R=15000; [M-H]-
Name: Nintedanib
Name: methyl 2-hydroxy-3-[N-[4-[methyl-[2-(4-methylpiperazin-1-yl)acetyl]amino]phenyl]-C-phenylcarbonimidoyl]-1H-indole-6-carboxylate
Name: methyl 3-[N-[4-[methyl-[2-(4-methylpiperazin-1-yl)ethanoyl]amino]phenyl]-C-phenyl-carbonimidoyl]-2-oxidanyl-1H-indole-6-carboxylate
Formula: C31H33N5O4
Exact mass: 539.2532545
SMILES: CN1CCN(CC1)CC(=O)N(C)C2=CC=C(C=C2)N=C(C3=CC=CC=C3)C4=C(NC5=C4C=CC(=C5)C(=O)OC)O
InChI: InChI=1S/C31H33N5O4/c1-34-15-17-36(18-16-34)20-27(37)35(2)24-12-10-23(11-13-24)32-29(21-7-5-4-6-8-21)28-25-14-9-22(31(39)40-3)19-26(25)33-30(28)38/h4-14,19,33,38H,15-18,20H2,1-3H3
Instrument: Q Exactive
Instrument type: LC-ESI-QFT
Ms type: MS2
Ion mode: NEGATIVE
Ionization: ESI
Fragmentation mode: HCD
Collision energy: 60 % (nominal)
Resolution: 15000
Column name: XBridge C18 3.5um, 2.1x50mm, Waters
Retention time: 7.388 min
Base peak: 538.2455
Precursor m/z: 538.246
Precursor type: [M-H]-
Precursor intensity: 143017272.33
m/z	relative intensity	assigned
105.0457	65	C6H5N2-
115.0302	12	C7H3N2-
119.0613	141	C7H7N2-
131.0378	10	C8H5NO-
133.0406	817	C7H5N2O-
134.0482	14	C7H6N2O-
166.066	13	C12H8N-
167.0736	24	C12H9N-
190.0506	12	C10H8NO3-
191.0738	44	C14H9N-
192.082	36	C14H10N-
214.0381	15	C11H6N2O3-
215.0461	13	C11H7N2O3-
223.0635	59	C14H9NO2-
246.1484	87	C13H18N4O-
250.0871	145	C16H12NO2-
265.0615	52	C13H7N5O2-
324.1249	20	C20H14N5-
336.1137	85	C22H14N3O-
338.1296	362	C22H16N3O-
339.1373	98	C22H17N3O-
340.146	28	C22H18N3O-
351.1014	90	C22H13N3O2-
352.1094	18	C22H14N3O2-
396.1348	999	C24H18N3O3-
397.1435	37	C24H19N3O3-
410.1141	222	C24H16N3O4-
