Mass spectrum: Triclopyr; LC-ESI-QFT; MS2; CE: 120%; R=15000; [M+H]+
Name: Triclopyr
Name: 2-(3,5,6-trichloropyridin-2-yl)oxyacetic acid
Formula: C7H4Cl3NO3
Exact mass: 254.925676
SMILES: OC(=O)COC1=C(Cl)C=C(Cl)C(Cl)=N1
InChI: InChI=1S/C7H4Cl3NO3/c8-3-1-4(9)7(11-6(3)10)14-2-5(12)13/h1H,2H2,(H,12,13)
Instrument: Q Exactive Plus
Instrument type: LC-ESI-QFT
Ms type: MS2
Ion mode: POSITIVE
Ionization: ESI
Fragmentation mode: HCD
Collision energy: 120 % (nominal)
Resolution: 15000
Column name: XBridge C18 3.5um, 2.1x50mm, Waters
Retention time: 9.064 min
Base peak: 164.9845
Precursor m/z: 255.933
Precursor type: [M+H]+
Precursor intensity: 4419539.74
m/z	relative intensity	assigned
61.9792	443	CHClN+
62.9632	209	CClO+
75.0103	277	C5HN+
76.0181	25	C5H2N+
83.9761	268	C4HCl+
84.984	124	C4H2Cl+
97.9791	67	C4HClN+
106.945	699	C3HCl2+
108.9714	708	C5ClN+
109.9792	999	C5HClN+
117.9373	35	C4Cl2+
118.945	512	C4HCl2+
127.9896	110	C5H3ClNO+
133.9558	42	C4H2Cl2N+
143.9404	43	C5Cl2N+
144.9481	30	C5HCl2N+
145.9557	50	C5H2Cl2N+
152.906	28	C4Cl3+
161.9507	267	C5H2Cl2NO+
163.9663	43	C5H4Cl2NO+
179.9165	46	C5HCl3N+
