Mass spectrum: N-Desmethylrosuvastatin; LC-ESI-QFT; MS2; CE: 180%; R=17500; [M+H]+
Name: N-Desmethylrosuvastatin
Name: 7-[4-(4-fluorophenyl)-2-(methanesulfonamido)-6-propan-2-ylpyrimidin-5-yl]-3,5-dihydroxyhept-6-enoic acid
Formula: C21H26FN3O6S
Exact mass: 467.1526348
SMILES: CC(C)C1=NC(=NC(=C1C=CC(CC(CC(=O)O)O)O)C2=CC=C(C=C2)F)NS(=O)(=O)C
InChI: InChI=1S/C21H26FN3O6S/c1-12(2)19-17(9-8-15(26)10-16(27)11-18(28)29)20(13-4-6-14(22)7-5-13)24-21(23-19)25-32(3,30)31/h4-9,12,15-16,26-27H,10-11H2,1-3H3,(H,28,29)(H,23,24,25)
Instrument: Exploris 240 Orbitrap Thermo Scientific
Instrument type: LC-ESI-QFT
Ms type: MS2
Ion mode: POSITIVE
Ionization: ESI
Fragmentation mode: HCD
Collision energy: 180 % (nominal)
Resolution: 17500
Column name: XBridge C18 3.5um, 2.1x50mm, Waters
Retention time: 5.375 min
Base peak: 468.1593
Precursor m/z: 468.1599
Precursor type: [M+H]+
m/z	relative intensity	assigned
51.0228	199	C4H3+
53.0386	84	C4H5+
54.034	55	C3H4N+
57.0135	96	C3H2F+
63.0229	132	C5H3+
65.0385	245	C5H5+
66.0338	26	C4H4N+
67.0544	33	C5H7+
75.0228	999	C6H3+
77.0386	338	C6H5+
78.0337	123	C5H4N+
79.0418	37	C5H5N+
79.0544	56	C6H7+
80.0495	53	C5H6N+
83.0291	328	C5H4F+
89.0387	93	C7H5+
90.0338	30	C6H4N+
91.0542	88	C7H7+
92.0495	69	C6H6N+
93.0575	31	C6H7N+
95.0292	200	C6H4F+
95.0492	116	C6H7O+
102.0342	35	C7H4N+
104.0496	79	C7H6N+
105.0447	163	C6H5N2+
106.0653	36	C7H8N+
107.0291	295	C7H4F+
109.045	99	C7H6F+
115.0543	64	C9H7+
119.0605	86	C7H7N2+
120.0372	119	C8H5F+
122.0402	136	C7H5FN+
123.0241	30	C7H4FO+
123.0352	440	C6H4FN2+
125.0388	203	C10H5+
126.0465	43	C10H6+
129.0448	74	C8H5N2+
130.0393	30	C7H4N3+
132.0372	59	C9H5F+
133.0447	710	C9H6F+
134.0395	30	C8H5FN+
140.0497	47	C10H6N+
145.0447	47	C10H6F+
146.0526	293	C10H7F+
151.0553	30	CH12FN2O3S+
152.0623	87	C12H8+
153.0446	46	C10H5N2+
155.0616	24	C4H13NO3S+
157.0446	371	C11H6F+
158.0399	170	C10H5FN+
158.0537	57	C2H10N2O6+
169.0453	63	C3H9N2O6+
170.0527	340	C12H7F+
172.0559	99	C11H7FN+
173.0509	134	C7H11NO2S+
184.0551	180	C4H11FN3O2S+
185.0635	207	C4H12FN3O2S+
197.051	64	C12H6FN2+
198.0714	174	C13H9FN+
208.0563	42	C14H7FN+
