Mass spectrum: Apremilast; LC-ESI-QFT; MS2; CE: 45%; R=15000; [M-H]-
Name: Apremilast
Name: Apremilast, (+/-)-
Name: N-[2-[(1S)-1-(3-ethoxy-4-methoxy-phenyl)-2-methylsulfonyl-ethyl]-1,3-bis(oxidanylidene)isoindol-4-yl]ethanamide
Formula: C22H24N2O7S
Exact mass: 460.1304221
SMILES: CCOC1=C(C=CC(=C1)C(CS(=O)(=O)C)N2C(=O)C3=C(C2=O)C(=CC=C3)NC(=O)C)OC
InChI: InChI=1S/C22H24N2O7S/c1-5-31-19-11-14(9-10-18(19)30-3)17(12-32(4,28)29)24-21(26)15-7-6-8-16(23-13(2)25)20(15)22(24)27/h6-11,17H,5,12H2,1-4H3,(H,23,25)
Instrument: Q Exactive
Instrument type: LC-ESI-QFT
Ms type: MS2
Ion mode: NEGATIVE
Ionization: ESI
Fragmentation mode: HCD
Collision energy: 45 % (nominal)
Resolution: 15000
Column name: XBridge C18 3.5um, 2.1x50mm, Waters
Retention time: 6.801 min
Base peak: 459.1239
Precursor m/z: 459.1231
Precursor type: [M-H]-
Precursor intensity: 240633702.71
m/z	relative intensity	assigned
63.9624	575	O2S-
78.986	999	CH3O2S-
93.0016	108	C2H5O2S-
147.0456	28	C9H7O2-
159.0563	28	C9H7N2O-
160.0279	18	C8H4N2O2-
160.0404	168	C9H6NO2-
161.0357	613	C8H5N2O2-
183.0567	33	C11H7N2O-
185.0358	16	C4H11NO5S-
187.0151	171	C9H3N2O3-
202.051	40	C11H8NO3-
203.0464	508	C10H7N2O3-
212.0149	14	C9H8O4S-
229.062	13	C12H9N2O3-
291.0778	43	C17H11N2O3-
305.0931	16	C18H13N2O3-
333.0882	21	C19H13N2O4-
335.0675	26	C18H11N2O5-
399.1024	48	C20H19N2O5S-
