Mass spectrum: 5-Hydroxysulfapyridine; LC-ESI-QFT; MS2; CE: 30%; R=17500; [M-H]-
Name: 5-Hydroxysulfapyridine
Name: Benzenesulfonamide, 4-amino-N-(5-hydroxy-2-pyridinyl)-
Name: 4-amino-N-(5-hydroxypyridin-2-yl)benzenesulfonamide
Formula: C11H11N3O3S
Exact mass: 265.0521122
SMILES: C1=CC(=CC=C1N)S(=O)(=O)NC2=NC=C(C=C2)O
InChI: InChI=1S/C11H11N3O3S/c12-8-1-4-10(5-2-8)18(16,17)14-11-6-3-9(15)7-13-11/h1-7,15H,12H2,(H,13,14)
Instrument: Exploris 240 Orbitrap Thermo Scientific
Instrument type: LC-ESI-QFT
Ms type: MS2
Ion mode: NEGATIVE
Ionization: ESI
Fragmentation mode: HCD
Collision energy: 30 % (nominal)
Resolution: 17500
Column name: XBridge C18 3.5um, 2.1x50mm, Waters
Retention time: 2.551 min
Base peak: 264.0447
Precursor m/z: 264.0448
Precursor type: [M-H]-
m/z	relative intensity	assigned
63.9624	18	O2S-
92.0505	14	C6H6N-
156.0125	999	C6H6NO2S-
173.0721	17	C10H9N2O-
200.0827	4	C11H10N3O-
264.0448	577	C11H10N3O3S-
