Mass spectrum: Tolterodine; LC-ESI-QFT; MS2; CE: 15%; R=15000; [M+H]+
Name: Tolterodine
Name: 2-[(1R)-3-[di(propan-2-yl)amino]-1-phenylpropyl]-4-methylphenol
Formula: C22H31NO
Exact mass: 325.2405646
SMILES: CC(C)N(CC[C@H](C1=CC=CC=C1)C1=C(O)C=CC(C)=C1)C(C)C
InChI: InChI=1S/C22H31NO/c1-16(2)23(17(3)4)14-13-20(19-9-7-6-8-10-19)21-15-18(5)11-12-22(21)24/h6-12,15-17,20,24H,13-14H2,1-5H3/t20-/m1/s1
Instrument: Exploris 240 Thermo Scientific
Instrument type: LC-ESI-QFT
Ms type: MS2
Ion mode: POSITIVE
Ionization: ESI
Fragmentation mode: HCD
Collision energy: 15 % (nominal)
Resolution: 15000
Column name: XBridge C18 3.5um, 2.1x50mm, Waters
Retention time: 6.330 min
Base peak: 326.2476
Precursor m/z: 326.2478
Precursor type: [M+H]+
m/z	relative intensity	assigned
202.0777	42	C16H10+
326.2477	999	C22H32NO+
