Mass spectrum: Flufenacet; LC-ESI-QFT; MS2; CE: 75%; R=15000; [M+H]+
Name: Flufenacet
Name: N-(4-fluorophenyl)-N-propan-2-yl-2-[[5-(trifluoromethyl)-1,3,4-thiadiazol-2-yl]oxy]acetamide
Formula: C14H13F4N3O2S
Exact mass: 363.0664605
SMILES: CC(C)N(C(=O)COC1=NN=C(S1)C(F)(F)F)C1=CC=C(F)C=C1
InChI: InChI=1S/C14H13F4N3O2S/c1-8(2)21(10-5-3-9(15)4-6-10)11(22)7-23-13-20-19-12(24-13)14(16,17)18/h3-6,8H,7H2,1-2H3
Instrument: Q Exactive Plus
Instrument type: LC-ESI-QFT
Ms type: MS2
Ion mode: POSITIVE
Ionization: ESI
Fragmentation mode: HCD
Collision energy: 75 % (nominal)
Resolution: 15000
Column name: XBridge C18 3.5um, 2.1x50mm, Waters
Retention time: 10.445 min
Base peak: 364.0739
Precursor m/z: 364.0737
Precursor type: [M+H]+
Precursor intensity: 508954947.53
m/z	relative intensity	assigned
83.0292	25	C5H4F+
95.0492	29	C6H7O+
96.037	25	C6H5F+
97.0449	374	C6H6F+
104.0495	30	C7H6N+
107.0293	11	C7H4F+
109.0449	332	C7H6F+
110.0402	22	C6H5FN+
112.0556	14	C6H7FN+
113.0396	15	C6H6FO+
115.0544	14	C9H7+
123.0241	103	C7H4FO+
124.0558	999	C7H7FN+
132.0446	10	C8H6NO+
134.0399	12	C8H5FN+
136.0557	12	C8H7FN+
137.0635	12	C8H8FN+
152.0507	120	C8H7FNO+
152.087	63	C9H11FN+
