Mass spectrum: Lercanidipine; LC-ESI-QFT; MS2; CE: 180%; R=17500; [M+H]+
Name: Lercanidipine
Name: 5-O-[1-[3,3-diphenylpropyl(methyl)amino]-2-methylpropan-2-yl] 3-O-methyl 2,6-dimethyl-4-(3-nitrophenyl)-1,4-dihydropyridine-3,5-dicarboxylate
Formula: C36H41N3O6
Exact mass: 611.299536032
SMILES: CC1=C(C(C(=C(N1)C)C(=O)OC(C)(C)CN(C)CCC(C2=CC=CC=C2)C3=CC=CC=C3)C4=CC(=CC=C4)[N+](=O)[O-])C(=O)OC
InChI: InChI=1S/C36H41N3O6/c1-24-31(34(40)44-6)33(28-18-13-19-29(22-28)39(42)43)32(25(2)37-24)35(41)45-36(3,4)23-38(5)21-20-30(26-14-9-7-10-15-26)27-16-11-8-12-17-27/h7-19,22,30,33,37H,20-21,23H2,1-6H3
Instrument: Exploris 240 Orbitrap Thermo Scientific
Instrument type: LC-ESI-QFT
Ms type: MS2
Ion mode: POSITIVE
Ionization: ESI
Fragmentation mode: HCD
Collision energy: 180 % (nominal)
Resolution: 17500
Column name: XBridge C18 3.5um, 2.1x50mm, Waters
Retention time: 11.139 min
Base peak: 132.9582
Precursor m/z: 612.3068
Precursor type: [M+H]+
m/z	relative intensity	assigned
65.0385	897	C5H5+
67.0178	235	C4H3O+
70.0652	105	C4H8N+
77.0388	103	C6H5+
78.0466	110	C6H6+
89.0386	260	C7H5+
91.0542	773	C7H7+
95.0491	92	C6H7O+
102.0464	215	C8H6+
105.0448	54	C6H5N2+
115.0542	999	C9H7+
126.0465	180	C10H6+
127.0544	78	C10H7+
128.062	298	C10H8+
139.0541	468	C11H7+
140.049	59	C10H6N+
141.0702	32	C11H9+
145.0655	42	C10H9O+
150.0463	93	C12H6+
151.0543	136	C12H7+
152.062	892	C12H8+
154.0657	64	C11H8N+
155.0608	66	C10H7N2+
163.0542	221	C13H7+
164.0625	228	C13H8+
165.0698	989	C13H9+
166.0655	56	C12H8N+
167.0729	49	C12H9N+
169.0645	214	C12H9O+
