Mass spectrum: Flufenacet; LC-ESI-QFT; MS2; CE: 60%; R=15000; [M+H]+
Name: Flufenacet
Name: N-(4-fluorophenyl)-N-propan-2-yl-2-[[5-(trifluoromethyl)-1,3,4-thiadiazol-2-yl]oxy]acetamide
Formula: C14H13F4N3O2S
Exact mass: 363.0664605
SMILES: CC(C)N(C(=O)COC1=NN=C(S1)C(F)(F)F)C1=CC=C(F)C=C1
InChI: InChI=1S/C14H13F4N3O2S/c1-8(2)21(10-5-3-9(15)4-6-10)11(22)7-23-13-20-19-12(24-13)14(16,17)18/h3-6,8H,7H2,1-2H3
Instrument: Q Exactive Plus
Instrument type: LC-ESI-QFT
Ms type: MS2
Ion mode: POSITIVE
Ionization: ESI
Fragmentation mode: HCD
Collision energy: 60 % (nominal)
Resolution: 15000
Column name: XBridge C18 3.5um, 2.1x50mm, Waters
Retention time: 10.445 min
Base peak: 364.0739
Precursor m/z: 364.0737
Precursor type: [M+H]+
Precursor intensity: 508954947.53
m/z	relative intensity	assigned
97.0449	161	C6H6F+
104.0496	10	C7H6N+
109.0449	273	C7H6F+
110.0402	10	C6H5FN+
112.0557	10	C6H7FN+
123.0241	40	C7H4FO+
124.0558	999	C7H7FN+
152.0507	329	C8H7FNO+
152.0869	106	C9H11FN+
