Mass spectrum: Clodinafop-propargyl; LC-ESI-QFT; MS2; CE: 45%; R=15000; [M+H]+
Name: Clodinafop-propargyl
Name: 2-(4-((5-Chloro-3-fluoro-2-pyridinyl)oxy)phenoxy)propanoic acid 2-propyn-1-yl ester
Name: prop-2-ynyl 2-[4-(5-chloro-3-fluoropyridin-2-yl)oxyphenoxy]propanoate
Formula: C17H13ClFNO4
Exact mass: 349.0517138
SMILES: CC(C(=O)OCC#C)OC1=CC=C(C=C1)OC2=NC=C(C=C2F)Cl
InChI: InChI=1S/C17H13ClFNO4/c1-3-8-22-17(21)11(2)23-13-4-6-14(7-5-13)24-16-15(19)9-12(18)10-20-16/h1,4-7,9-11H,8H2,2H3
Instrument: Exploris 240 Thermo Scientific
Instrument type: LC-ESI-QFT
Ms type: MS2
Ion mode: POSITIVE
Ionization: ESI
Fragmentation mode: HCD
Collision energy: 45 % (nominal)
Resolution: 15000
Column name: XBridge C18 3.5um, 2.1x50mm, Waters
Retention time: 10.935 min
Base peak: 350.0585
Precursor m/z: 350.059
Precursor type: [M+H]+
m/z	relative intensity	assigned
91.0541	999	C7H7+
92.062	17	C7H8+
119.049	141	C8H7O+
120.0567	69	C8H8O+
121.0283	40	C7H5O2+
121.0645	31	C8H9O+
131.0486	33	C9H7O+
147.9961	43	C5H4ClFNO+
182.0164	13	C12H3FO+
202.0661	18	C12H9FNO+
203.0737	29	C12H10FNO+
210.0475	49	C14H7FO+
222.0111	231	C14H3FO2+
231.0687	23	C13H10FNO2+
238.007	92	C11H6ClFNO2+
238.0421	541	C15H7FO2+
239.0138	140	C11H7ClFNO2+
266.0375	561	C16H7FO3+
