Mass spectrum: Indoxacarb; LC-ESI-QFT; MS2; CE: 30%; R=15000; [M+H]+
Name: Indoxacarb
Name: methyl (4aS)-7-chloro-2-[methoxycarbonyl-[4-(trifluoromethoxy)phenyl]carbamoyl]-3,5-dihydroindeno[1,2-e][1,3,4]oxadiazine-4a-carboxylate
Formula: C22H17ClF3N3O7
Exact mass: 527.0707122
SMILES: COC(=O)N(C(=O)N1CO[C@]2(CC3=C(C=CC(Cl)=C3)C2=N1)C(=O)OC)C1=CC=C(OC(F)(F)F)C=C1
InChI: InChI=1S/C22H17ClF3N3O7/c1-33-18(30)21-10-12-9-13(23)3-8-16(12)17(21)27-28(11-35-21)19(31)29(20(32)34-2)14-4-6-15(7-5-14)36-22(24,25)26/h3-9H,10-11H2,1-2H3/t21-/m0/s1
Instrument: Q Exactive Plus
Instrument type: LC-ESI-QFT
Ms type: MS2
Ion mode: POSITIVE
Ionization: ESI
Fragmentation mode: HCD
Collision energy: 30 % (nominal)
Resolution: 15000
Column name: XBridge C18 3.5um, 2.1x50mm, Waters
Retention time: 12.982 min
Base peak: 528.0783
Precursor m/z: 528.078
Precursor type: [M+H]+
Precursor intensity: 66716548.9
m/z	relative intensity	assigned
56.0131	680	C2H2NO+
75.0441	48	C3H7O2+
81.0147	28	C2H3F2O+
104.0493	23	C7H6N+
137.0153	19	C8H6Cl+
150.0106	447	C8H5ClN+
150.055	42	C8H8NO2+
155.0604	32	C10H7N2+
160.0506	53	C8H6N3O+
162.0105	42	C9H5ClN+
164.0259	19	ClF2H11O5+
168.0211	660	C8H7ClNO+
179.0258	28	C10H8ClO+
180.021	35	C9H7ClNO+
189.0215	133	C10H6ClN2+
190.0054	512	C10H5ClNO+
195.0208	82	C10H8ClO2+
203.0188	612	C8H4F3NO2+
204.0085	23	C10H5ClN2O+
208.016	59	C10H7ClNO2+
214.0736	47	C12H10N2O2+
217.0164	330	C11H6ClN2O+
218.0423	999	C9H7F3NO2+
219.032	162	C11H8ClN2O+
249.0425	250	C12H10ClN2O2+
