Mass spectrum: Zafirlukast; LC-ESI-QFT; MS2; CE: 60%; R=15000; [M-H]-
Name: Zafirlukast
Name: cyclopentyl N-[3-[[2-methoxy-4-[(2-methylphenyl)sulfonylcarbamoyl]phenyl]methyl]-1-methylindol-5-yl]carbamate
Formula: C31H33N3O6S
Exact mass: 575.2090068
SMILES: COC1=C(CC2=CN(C)C3=C2C=C(NC(=O)OC2CCCC2)C=C3)C=CC(=C1)C(=O)NS(=O)(=O)C1=CC=CC=C1C
InChI: InChI=1S/C31H33N3O6S/c1-20-8-4-7-11-29(20)41(37,38)33-30(35)22-13-12-21(28(17-22)39-3)16-23-19-34(2)27-15-14-24(18-26(23)27)32-31(36)40-25-9-5-6-10-25/h4,7-8,11-15,17-19,25H,5-6,9-10,16H2,1-3H3,(H,32,36)(H,33,35)
Instrument: Q Exactive Plus
Instrument type: LC-ESI-QFT
Ms type: MS2
Ion mode: NEGATIVE
Ionization: ESI
Fragmentation mode: HCD
Collision energy: 60 % (nominal)
Resolution: 15000
Column name: XBridge C18 3.5um, 2.1x50mm, Waters
Retention time: 12.471 min
Base peak: 574.2016
Precursor m/z: 574.2017
Precursor type: [M-H]-
Precursor intensity: 37802295.28
m/z	relative intensity	assigned
61.9706	35	NOS-
63.9624	313	O2S-
77.9656	15	NO2S-
78.9734	25	HNO2S-
79.9812	76	H2NO2S-
83.0504	34	C5H7O-
91.019	87	C6H3O-
91.0554	39	C7H7-
106.0662	58	C7H8N-
107.0503	999	C7H7O-
131.0615	25	C8H7N2-
145.0771	14	C9H9N2-
155.0171	124	C7H7O2S-
170.0281	623	C7H8NO2S-
171.012	59	C7H7O3S-
207.0926	13	C14H11N2-
209.0721	56	C13H9N2O-
233.0726	42	C15H9N2O-
234.0799	129	C15H10N2O-
235.0877	455	C15H11N2O-
237.0669	58	C14H9N2O2-
250.1109	27	C10H20NO4S-
260.0829	272	C16H10N3O-
261.0671	124	C16H9N2O2-
265.0624	30	C9H15NO6S-
279.0773	233	C16H11N2O3-
286.0626	111	C11H14N2O5S-
292.1093	110	C17H14N3O2-
304.0726	13	C17H10N3O3-
305.057	113	C17H9N2O4-
368.1412	24	C17H24N2O5S-
414.0919	293	C23H16N3O3S-
432.1026	893	C23H18N3O4S-
440.07	59	C24H14N3O4S-
458.0822	182	C24H16N3O5S-
