Mass spectrum: Clopyralid; LC-ESI-QFT; MS2; CE: 120%; R=15000; [M+H]+
Name: Clopyralid
Name: 3,6-dichloropyridine-2-carboxylic acid
Formula: C6H3Cl2NO2
Exact mass: 190.9540837
SMILES: OC(=O)C1=C(Cl)C=CC(Cl)=N1
InChI: InChI=1S/C6H3Cl2NO2/c7-3-1-2-4(8)9-5(3)6(10)11/h1-2H,(H,10,11)
Instrument: Q Exactive Plus
Instrument type: LC-ESI-QFT
Ms type: MS2
Ion mode: POSITIVE
Ionization: ESI
Fragmentation mode: HCD
Collision energy: 120 % (nominal)
Resolution: 15000
Column name: XBridge C18 3.5um, 2.1x50mm, Waters
Retention time: 3.094 min
Base peak: 191.9615
Precursor m/z: 191.9614
Precursor type: [M+H]+
Precursor intensity: 68969664.06
m/z	relative intensity	assigned
61.9792	147	CHClN+
72.984	24	C3H2Cl+
75.0104	229	C5HN+
84.984	70	C4H2Cl+
99.9949	22	C4H3ClN+
109.9793	999	C5HClN+
118.9451	38	C4HCl2+
127.9898	114	C5H3ClNO+
145.956	86	C5H2Cl2N+
163.9666	39	C5H4Cl2NO+
