Mass spectrum: N-Methylpregabalin; LC-ESI-QFT; MS2; CE: 45%; R=17500; [M+H]+
Name: N-Methylpregabalin
Name: 5-methyl-3-[(methylazaniumyl)methyl]hexanoate
Formula: C9H19NO2
Exact mass: 173.1415788
SMILES: CC(C)CC(CC(=O)O)CNC
InChI: InChI=1S/C9H19NO2/c1-7(2)4-8(6-10-3)5-9(11)12/h7-8,10H,4-6H2,1-3H3,(H,11,12)
Instrument: Exploris 240 Orbitrap Thermo Scientific
Instrument type: LC-ESI-QFT
Ms type: MS2
Ion mode: POSITIVE
Ionization: ESI
Fragmentation mode: HCD
Collision energy: 45 % (nominal)
Resolution: 17500
Column name: XBridge C18 3.5um, 2.1x50mm, Waters
Retention time: 3.329 min
Base peak: 174.1486
Precursor m/z: 174.1489
Precursor type: [M+H]+
m/z	relative intensity	assigned
55.0179	36	C3H3O+
55.0542	134	C4H7+
57.0697	18	C4H9+
58.0286	10	C2H4NO+
59.049	12	C3H7O+
69.0696	22	C5H9+
79.0541	9	C6H7+
82.0651	41	C5H8N+
83.0855	237	C6H11+
97.1012	257	C7H13+
101.0961	6	C6H13O+
107.0853	32	C8H11+
125.0961	91	C8H13O+
138.1277	234	C9H16N+
143.1066	61	C8H15O2+
156.1382	999	C9H18NO+
174.1489	318	C9H20NO2+
