Mass spectrum: Hexanamide; LC-ESI-QFT; MS2; CE: 75%; R=15000; [M+H]+
Name: Hexanamide
Formula: C6H13NO
Exact mass: 115.099714
SMILES: CCCCCC(=O)N
InChI: InChI=1S/C6H13NO/c1-2-3-4-5-6(7)8/h2-5H2,1H3,(H2,7,8)
Instrument: Exploris 240 Thermo Scientific
Instrument type: LC-ESI-QFT
Ms type: MS2
Ion mode: POSITIVE
Ionization: ESI
Fragmentation mode: HCD
Collision energy: 75 % (nominal)
Resolution: 15000
Column name: XBridge C18 3.5um, 2.1x50mm, Waters
Retention time: 4.340 min
Base peak: 116.1069
Precursor m/z: 116.107
Precursor type: [M+H]+
m/z	relative intensity	assigned
41.0386	439	C3H5+
43.0543	937	C3H7+
44.0131	165	CH2NO+
46.0287	17	CH4NO+
55.0543	52	C4H7+
57.0335	211	C3H5O+
57.0699	251	C4H9+
59.0367	25	C2H5NO+
59.049	11	C3H7O+
60.0444	32	C2H6NO+
71.0493	93	C4H7O+
71.0856	490	C5H11+
74.0601	723	C3H8NO+
81.07	31	C6H9+
86.06	29	C4H8NO+
88.0758	484	C4H10NO+
99.0802	42	C6H11O+
116.1071	999	C6H14NO+
