Mass spectrum: Abacavir 5`-carboxylate; LC-ESI-QFT; MS2; CE: 120%; R=17500; [M-H]-
Name: Abacavir 5`-carboxylate
Name: 4-[2-amino-6-(cyclopropylamino)purin-9-yl]cyclopent-2-ene-1-carboxylic acid
Formula: C14H16N6O2
Exact mass: 300.1334738
SMILES: C1CC1NC2=C3C(=NC(=N2)N)N(C=N3)C4CC(C=C4)C(=O)O
InChI: InChI=1S/C14H16N6O2/c15-14-18-11(17-8-2-3-8)10-12(19-14)20(6-16-10)9-4-1-7(5-9)13(21)22/h1,4,6-9H,2-3,5H2,(H,21,22)(H3,15,17,18,19)
Instrument: Exploris 240 Orbitrap Thermo Scientific
Instrument type: LC-ESI-QFT
Ms type: MS2
Ion mode: NEGATIVE
Ionization: ESI
Fragmentation mode: HCD
Collision energy: 120 % (nominal)
Resolution: 17500
Column name: XBridge C18 3.5um, 2.1x50mm, Waters
Retention time: 3.380 min
Base peak: 299.1261
Precursor m/z: 299.1262
Precursor type: [M-H]-
m/z	relative intensity	assigned
64.0068	49	C3N2-
65.0146	14	C3HN2-
66.0098	999	C2N3-
66.0349	88	C4H4N-
78.0098	11	C3N3-
79.0176	28	C3HN3-
81.046	27	C4H5N2-
82.0411	23	C3H4N3-
90.0095	19	C4N3-
91.0302	29	C5H3N2-
105.0206	43	C4HN4-
106.0284	975	C4H2N4-
107.0363	519	C4H3N4-
117.021	16	C5HN4-
118.0409	11	C6H4N3-
131.0236	197	C5HN5-
132.0315	581	C5H2N5-
148.0506	42	C5H4N6-
