Mass spectrum: Nifedipine; LC-ESI-QFT; MS2; CE: 25%; R=15000; [M+H]+
Name: Nifedipine
Name: dimethyl 2,6-dimethyl-4-(2-nitrophenyl)-1,4-dihydropyridine-3,5-dicarboxylate
Formula: C17H18N2O6
Exact mass: 346.1164863
SMILES: CC1=C(C(C(=C(N1)C)C(=O)OC)C2=CC=CC=C2[N+](=O)[O-])C(=O)OC
InChI: InChI=1S/C17H18N2O6/c1-9-13(16(20)24-3)15(14(10(2)18-9)17(21)25-4)11-7-5-6-8-12(11)19(22)23/h5-8,15,18H,1-4H3
Instrument: Exploris 240 Thermo Scientific
Instrument type: LC-ESI-QFT
Ms type: MS2
Ion mode: POSITIVE
Ionization: ESI
Fragmentation mode: HCD
Collision energy: 25 % (nominal)
Resolution: 15000
Column name: XBridge C18 3.5um, 2.1x50mm, Waters
Retention time: 7.287 min
Base peak: 347.1235
Precursor m/z: 347.1238
Precursor type: [M+H]+
m/z	relative intensity	assigned
122.0236	108	C6H4NO2+
142.0651	68	C10H8N+
154.0649	97	C11H8N+
168.0809	114	C12H10N+
170.0602	119	C11H8NO+
178.0654	44	C13H8N+
182.0833	97	C12H10N2+
183.0917	151	C12H11N2+
193.0765	40	C13H9N2+
194.0835	284	C13H10N2+
195.0915	448	C13H11N2+
196.0993	175	C13H12N2+
202.0777	307	C16H10+
209.0706	107	C13H9N2O+
210.0922	22	C14H12NO+
211.0625	53	C13H9NO2+
211.0859	254	C13H11N2O+
212.0945	87	C13H12N2O+
214.0497	111	C12H8NO3+
221.0712	36	C14H9N2O+
222.0545	16	C14H8NO2+
222.0783	107	C14H10N2O+
223.0864	291	C14H11N2O+
228.0897	39	C13H12N2O2+
232.0605	46	C12H10NO4+
239.0815	298	C14H11N2O2+
253.0973	421	C15H13N2O2+
254.1052	999	C15H14N2O2+
268.0978	30	C16H14NO3+
