Mass spectrum: Azelastine; LC-ESI-QFT; MS2; CE: 70%; R=15000; [M+H]+
Name: Azelastine
Name: 4-[(4-chlorophenyl)methyl]-2-(1-methylazepan-4-yl)phthalazin-1-one
Formula: C22H24ClN3O
Exact mass: 381.1607901
SMILES: CN1CCCC(CC1)N2C(=O)C3=CC=CC=C3C(=N2)CC4=CC=C(C=C4)Cl
InChI: InChI=1S/C22H24ClN3O/c1-25-13-4-5-18(12-14-25)26-22(27)20-7-3-2-6-19(20)21(24-26)15-16-8-10-17(23)11-9-16/h2-3,6-11,18H,4-5,12-15H2,1H3
Instrument: Exploris 240 Thermo Scientific
Instrument type: LC-ESI-QFT
Ms type: MS2
Ion mode: POSITIVE
Ionization: ESI
Fragmentation mode: HCD
Collision energy: 70 % (nominal)
Resolution: 15000
Column name: XBridge C18 3.5um, 2.1x50mm, Waters
Retention time: 6.298 min
Base peak: 382.1677
Precursor m/z: 382.1681
Precursor type: [M+H]+
m/z	relative intensity	assigned
51.023	21	C4H3+
53.0386	76	C4H5+
55.0543	49	C4H7+
58.0651	999	C3H8N+
66.0465	13	C5H6+
68.0496	38	C4H6N+
70.0651	58	C4H8N+
77.0385	42	C6H5+
79.0542	86	C6H7+
82.0651	54	C5H8N+
84.0807	154	C5H10N+
89.0387	37	C7H5+
95.0492	74	C6H7O+
98.9998	34	C5H4Cl+
102.0465	24	C8H6+
105.045	35	C6H5N2+
125.015	42	C7H6Cl+
202.0778	284	C16H10+
