Mass spectrum: Tolclofos-methyl; LC-ESI-QFT; MS2; CE: 180%; R=15000; [M+H]+
Name: Tolclofos-methyl
Name: (2,6-dichloro-4-methylphenoxy)-dimethoxy-sulfanylidene-lambda5-phosphane
Formula: C9H11Cl2O3PS
Exact mass: 299.9543572
SMILES: COP(=S)(OC)OC1=C(Cl)C=C(C)C=C1Cl
InChI: InChI=1S/C9H11Cl2O3PS/c1-6-4-7(10)9(8(11)5-6)14-15(16,12-2)13-3/h4-5H,1-3H3
Instrument: Q Exactive Plus
Instrument type: LC-ESI-QFT
Ms type: MS2
Ion mode: POSITIVE
Ionization: ESI
Fragmentation mode: HCD
Collision energy: 180 % (nominal)
Resolution: 15000
Column name: XBridge C18 3.5um, 2.1x50mm, Waters
Retention time: 12.151 min
Base peak: 300.9617
Precursor m/z: 300.9616
Precursor type: [M+H]+
Precursor intensity: 57974677.45
m/z	relative intensity	assigned
50.0151	317	C4H2+
51.023	577	C4H3+
53.0386	142	C4H5+
59.9664	86	COS+
62.0151	64	C5H2+
62.9453	128	PS+
62.9995	42	CH4OP+
63.023	87	C5H3+
65.0387	90	C5H5+
68.9793	41	C3HS+
72.984	109	C3H2Cl+
74.0151	905	C6H2+
75.0229	999	C6H3+
76.0308	44	C6H4+
77.0386	194	C6H5+
84.984	172	C4H2Cl+
89.0386	77	C7H5+
95.0492	432	C6H7O+
96.9838	16	C5H2Cl+
112.0074	90	C6H5Cl+
